<?xml version="1.0" encoding="UTF-8"?>

<!-- generated on 2023-07-14 16:29:33.786392 by randomTrips.py UNKNOWN
<configuration>
    <begin value="0"/>
    <end value="1800"/>
    <fringe-factor value="10"/>
    <net-file value="lefthand.net.xml"/>
    <period value="1.9"/>
    <random value="True"/>
    <route-file value="four-leg-new-intersection.rou.xml"/>
</configuration>
-->

<!-- generated on 2023-07-14 16:29:33 by Eclipse SUMO duarouter Version 1.15.0
<configuration xmlns:xsi="http://www.w3.org/2001/XMLSchema-instance" xsi:noNamespaceSchemaLocation="http://sumo.dlr.de/xsd/duarouterConfiguration.xsd">

    <input>
        <net-file value="lefthand.net.xml"/>
        <route-files value="trips.trips.xml"/>
    </input>

    <output>
        <output-file value="four-leg-new-intersection.rou.xml"/>
        <alternatives-output value="NUL"/>
    </output>

    <time>
        <begin value="0"/>
        <end value="1800"/>
    </time>

    <report>
        <no-warnings value="true"/>
        <ignore-errors value="true"/>
        <no-step-log value="true"/>
    </report>

</configuration>
-->

<routes xmlns:xsi="http://www.w3.org/2001/XMLSchema-instance" xsi:noNamespaceSchemaLocation="http://sumo.dlr.de/xsd/routes_file.xsd">
    <vehicle id="2" depart="3.80">
        <route edges="-E3 E1"/>
    </vehicle>
    <vehicle id="4" depart="7.60">
        <route edges="-E2 E1"/>
    </vehicle>
    <vehicle id="5" depart="9.50">
        <route edges="-E3 E4"/>
    </vehicle>
    <vehicle id="7" depart="13.30">
        <route edges="-E4 E3"/>
    </vehicle>
    <vehicle id="8" depart="15.20">
        <route edges="-E3 E1"/>
    </vehicle>
    <vehicle id="9" depart="17.10">
        <route edges="-E1 E4"/>
    </vehicle>
    <vehicle id="10" depart="19.00">
        <route edges="-E2 E3"/>
    </vehicle>
    <vehicle id="11" depart="20.90">
        <route edges="-E3 E4"/>
    </vehicle>
    <vehicle id="12" depart="22.80">
        <route edges="-E2 E3"/>
    </vehicle>
    <vehicle id="13" depart="24.70">
        <route edges="-E2 E4"/>
    </vehicle>
    <vehicle id="14" depart="26.60">
        <route edges="-E2 E1"/>
    </vehicle>
    <vehicle id="15" depart="28.50">
        <route edges="-E3 E2"/>
    </vehicle>
    <vehicle id="16" depart="30.40">
        <route edges="-E4 E3"/>
    </vehicle>
    <vehicle id="17" depart="32.30">
        <route edges="-E2 E3"/>
    </vehicle>
    <vehicle id="18" depart="34.20">
        <route edges="-E3 E1"/>
    </vehicle>
    <vehicle id="21" depart="39.90">
        <route edges="-E3 E1"/>
    </vehicle>
    <vehicle id="22" depart="41.80">
        <route edges="-E3 E4"/>
    </vehicle>
    <vehicle id="23" depart="43.70">
        <route edges="-E2 E4"/>
    </vehicle>
    <vehicle id="24" depart="45.60">
        <route edges="-E4 E2"/>
    </vehicle>
    <vehicle id="25" depart="47.50">
        <route edges="-E1 E3"/>
    </vehicle>
    <vehicle id="26" depart="49.40">
        <route edges="-E1 E4"/>
    </vehicle>
    <vehicle id="28" depart="53.20">
        <route edges="-E1 E4"/>
    </vehicle>
    <vehicle id="30" depart="57.00">
        <route edges="-E3 E2"/>
    </vehicle>
    <vehicle id="31" depart="58.90">
        <route edges="-E2 E4"/>
    </vehicle>
    <vehicle id="32" depart="60.80">
        <route edges="-E1 E3"/>
    </vehicle>
    <vehicle id="33" depart="62.70">
        <route edges="-E3 E2"/>
    </vehicle>
    <vehicle id="38" depart="72.20">
        <route edges="-E3 E4"/>
    </vehicle>
    <vehicle id="40" depart="76.00">
        <route edges="-E1 E4"/>
    </vehicle>
    <vehicle id="41" depart="77.90">
        <route edges="-E4 E3"/>
    </vehicle>
    <vehicle id="42" depart="79.80">
        <route edges="-E3 E2"/>
    </vehicle>
    <vehicle id="44" depart="83.60">
        <route edges="-E2 E1"/>
    </vehicle>
    <vehicle id="45" depart="85.50">
        <route edges="-E4 E2"/>
    </vehicle>
    <vehicle id="46" depart="87.40">
        <route edges="-E2 E3"/>
    </vehicle>
    <vehicle id="47" depart="89.30">
        <route edges="-E3 E4"/>
    </vehicle>
    <vehicle id="48" depart="91.20">
        <route edges="-E3 E1"/>
    </vehicle>
    <vehicle id="49" depart="93.10">
        <route edges="-E2 E1"/>
    </vehicle>
    <vehicle id="53" depart="100.70">
        <route edges="-E3 E4"/>
    </vehicle>
    <vehicle id="54" depart="102.60">
        <route edges="-E2 E1"/>
    </vehicle>
    <vehicle id="55" depart="104.50">
        <route edges="-E2 E4"/>
    </vehicle>
    <vehicle id="56" depart="106.40">
        <route edges="-E1 E3"/>
    </vehicle>
    <vehicle id="57" depart="108.30">
        <route edges="-E1 E4"/>
    </vehicle>
    <vehicle id="59" depart="112.10">
        <route edges="-E4 E1"/>
    </vehicle>
    <vehicle id="60" depart="114.00">
        <route edges="-E1 E4"/>
    </vehicle>
    <vehicle id="61" depart="115.90">
        <route edges="-E2 E4"/>
    </vehicle>
    <vehicle id="64" depart="121.60">
        <route edges="-E4 E1"/>
    </vehicle>
    <vehicle id="66" depart="125.40">
        <route edges="-E1 E3"/>
    </vehicle>
    <vehicle id="67" depart="127.30">
        <route edges="-E4 E2"/>
    </vehicle>
    <vehicle id="68" depart="129.20">
        <route edges="-E3 E1"/>
    </vehicle>
    <vehicle id="69" depart="131.10">
        <route edges="-E3 E4"/>
    </vehicle>
    <vehicle id="70" depart="133.00">
        <route edges="-E4 E2"/>
    </vehicle>
    <vehicle id="71" depart="134.90">
        <route edges="-E2 E4"/>
    </vehicle>
    <vehicle id="72" depart="136.80">
        <route edges="-E1 E4"/>
    </vehicle>
    <vehicle id="73" depart="138.70">
        <route edges="-E3 E1"/>
    </vehicle>
    <vehicle id="74" depart="140.60">
        <route edges="-E4 E2"/>
    </vehicle>
    <vehicle id="75" depart="142.50">
        <route edges="-E1 E4"/>
    </vehicle>
    <vehicle id="77" depart="146.30">
        <route edges="-E1 E2"/>
    </vehicle>
    <vehicle id="79" depart="150.10">
        <route edges="-E1 E4"/>
    </vehicle>
    <vehicle id="80" depart="152.00">
        <route edges="-E1 E3"/>
    </vehicle>
    <vehicle id="83" depart="157.70">
        <route edges="-E3 E1"/>
    </vehicle>
    <vehicle id="84" depart="159.60">
        <route edges="-E1 E3"/>
    </vehicle>
    <vehicle id="85" depart="161.50">
        <route edges="-E3 E1"/>
    </vehicle>
    <vehicle id="87" depart="165.30">
        <route edges="-E2 E4"/>
    </vehicle>
    <vehicle id="89" depart="169.10">
        <route edges="-E2 E1"/>
    </vehicle>
    <vehicle id="90" depart="171.00">
        <route edges="-E4 E1"/>
    </vehicle>
    <vehicle id="91" depart="172.90">
        <route edges="-E4 E1"/>
    </vehicle>
    <vehicle id="92" depart="174.80">
        <route edges="-E3 E2"/>
    </vehicle>
    <vehicle id="93" depart="176.70">
        <route edges="-E4 E2"/>
    </vehicle>
    <vehicle id="94" depart="178.60">
        <route edges="-E2 E4"/>
    </vehicle>
    <vehicle id="95" depart="180.50">
        <route edges="-E4 E2"/>
    </vehicle>
    <vehicle id="96" depart="182.40">
        <route edges="-E2 E4"/>
    </vehicle>
    <vehicle id="97" depart="184.30">
        <route edges="-E1 E2"/>
    </vehicle>
    <vehicle id="98" depart="186.20">
        <route edges="-E1 E3"/>
    </vehicle>
    <vehicle id="99" depart="188.10">
        <route edges="-E3 E4"/>
    </vehicle>
    <vehicle id="100" depart="190.00">
        <route edges="-E4 E3"/>
    </vehicle>
    <vehicle id="104" depart="197.60">
        <route edges="-E2 E4"/>
    </vehicle>
    <vehicle id="105" depart="199.50">
        <route edges="-E3 E2"/>
    </vehicle>
    <vehicle id="106" depart="201.40">
        <route edges="-E3 E4"/>
    </vehicle>
    <vehicle id="107" depart="203.30">
        <route edges="-E4 E2"/>
    </vehicle>
    <vehicle id="108" depart="205.20">
        <route edges="-E1 E4"/>
    </vehicle>
    <vehicle id="109" depart="207.10">
        <route edges="-E1 E4"/>
    </vehicle>
    <vehicle id="110" depart="209.00">
        <route edges="-E3 E2"/>
    </vehicle>
    <vehicle id="112" depart="212.80">
        <route edges="-E4 E3"/>
    </vehicle>
    <vehicle id="113" depart="214.70">
        <route edges="-E1 E2"/>
    </vehicle>
    <vehicle id="115" depart="218.50">
        <route edges="-E2 E3"/>
    </vehicle>
    <vehicle id="116" depart="220.40">
        <route edges="-E2 E4"/>
    </vehicle>
    <vehicle id="121" depart="229.90">
        <route edges="-E1 E4"/>
    </vehicle>
    <vehicle id="122" depart="231.80">
        <route edges="-E4 E1"/>
    </vehicle>
    <vehicle id="123" depart="233.70">
        <route edges="-E4 E2"/>
    </vehicle>
    <vehicle id="124" depart="235.60">
        <route edges="-E1 E2"/>
    </vehicle>
    <vehicle id="125" depart="237.50">
        <route edges="-E4 E3"/>
    </vehicle>
    <vehicle id="126" depart="239.40">
        <route edges="-E1 E3"/>
    </vehicle>
    <vehicle id="127" depart="241.30">
        <route edges="-E2 E3"/>
    </vehicle>
    <vehicle id="128" depart="243.20">
        <route edges="-E1 E3"/>
    </vehicle>
    <vehicle id="129" depart="245.10">
        <route edges="-E3 E4"/>
    </vehicle>
    <vehicle id="130" depart="247.00">
        <route edges="-E1 E3"/>
    </vehicle>
    <vehicle id="131" depart="248.90">
        <route edges="-E3 E2"/>
    </vehicle>
    <vehicle id="133" depart="252.70">
        <route edges="-E3 E1"/>
    </vehicle>
    <vehicle id="134" depart="254.60">
        <route edges="-E1 E4"/>
    </vehicle>
    <vehicle id="135" depart="256.50">
        <route edges="-E4 E2"/>
    </vehicle>
    <vehicle id="136" depart="258.40">
        <route edges="-E3 E4"/>
    </vehicle>
    <vehicle id="137" depart="260.30">
        <route edges="-E1 E3"/>
    </vehicle>
    <vehicle id="139" depart="264.10">
        <route edges="-E4 E3"/>
    </vehicle>
    <vehicle id="141" depart="267.90">
        <route edges="-E3 E4"/>
    </vehicle>
    <vehicle id="142" depart="269.80">
        <route edges="-E3 E1"/>
    </vehicle>
    <vehicle id="143" depart="271.70">
        <route edges="-E1 E2"/>
    </vehicle>
    <vehicle id="144" depart="273.60">
        <route edges="-E1 E3"/>
    </vehicle>
    <vehicle id="145" depart="275.50">
        <route edges="-E4 E2"/>
    </vehicle>
    <vehicle id="146" depart="277.40">
        <route edges="-E1 E3"/>
    </vehicle>
    <vehicle id="147" depart="279.30">
        <route edges="-E3 E1"/>
    </vehicle>
    <vehicle id="148" depart="281.20">
        <route edges="-E1 E2"/>
    </vehicle>
    <vehicle id="149" depart="283.10">
        <route edges="-E2 E4"/>
    </vehicle>
    <vehicle id="150" depart="285.00">
        <route edges="-E1 E3"/>
    </vehicle>
    <vehicle id="151" depart="286.90">
        <route edges="-E4 E2"/>
    </vehicle>
    <vehicle id="152" depart="288.80">
        <route edges="-E3 E2"/>
    </vehicle>
    <vehicle id="153" depart="290.70">
        <route edges="-E2 E4"/>
    </vehicle>
    <vehicle id="154" depart="292.60">
        <route edges="-E4 E3"/>
    </vehicle>
    <vehicle id="155" depart="294.50">
        <route edges="-E3 E4"/>
    </vehicle>
    <vehicle id="157" depart="298.30">
        <route edges="-E2 E1"/>
    </vehicle>
    <vehicle id="158" depart="300.20">
        <route edges="-E1 E3"/>
    </vehicle>
    <vehicle id="159" depart="302.10">
        <route edges="-E1 E3"/>
    </vehicle>
    <vehicle id="160" depart="304.00">
        <route edges="-E1 E3"/>
    </vehicle>
    <vehicle id="161" depart="305.90">
        <route edges="-E4 E3"/>
    </vehicle>
    <vehicle id="164" depart="311.60">
        <route edges="-E1 E3"/>
    </vehicle>
    <vehicle id="165" depart="313.50">
        <route edges="-E1 E4"/>
    </vehicle>
    <vehicle id="166" depart="315.40">
        <route edges="-E3 E4"/>
    </vehicle>
    <vehicle id="167" depart="317.30">
        <route edges="-E2 E1"/>
    </vehicle>
    <vehicle id="169" depart="321.10">
        <route edges="-E4 E3"/>
    </vehicle>
    <vehicle id="170" depart="323.00">
        <route edges="-E4 E3"/>
    </vehicle>
    <vehicle id="171" depart="324.90">
        <route edges="-E4 E3"/>
    </vehicle>
    <vehicle id="172" depart="326.80">
        <route edges="-E2 E4"/>
    </vehicle>
    <vehicle id="173" depart="328.70">
        <route edges="-E4 E2"/>
    </vehicle>
    <vehicle id="174" depart="330.60">
        <route edges="-E2 E3"/>
    </vehicle>
    <vehicle id="175" depart="332.50">
        <route edges="-E1 E4"/>
    </vehicle>
    <vehicle id="176" depart="334.40">
        <route edges="-E4 E3"/>
    </vehicle>
    <vehicle id="177" depart="336.30">
        <route edges="-E2 E1"/>
    </vehicle>
    <vehicle id="178" depart="338.20">
        <route edges="-E2 E4"/>
    </vehicle>
    <vehicle id="179" depart="340.10">
        <route edges="-E2 E1"/>
    </vehicle>
    <vehicle id="180" depart="342.00">
        <route edges="-E4 E1"/>
    </vehicle>
    <vehicle id="181" depart="343.90">
        <route edges="-E4 E3"/>
    </vehicle>
    <vehicle id="182" depart="345.80">
        <route edges="-E2 E3"/>
    </vehicle>
    <vehicle id="183" depart="347.70">
        <route edges="-E3 E1"/>
    </vehicle>
    <vehicle id="184" depart="349.60">
        <route edges="-E4 E2"/>
    </vehicle>
    <vehicle id="185" depart="351.50">
        <route edges="-E3 E4"/>
    </vehicle>
    <vehicle id="186" depart="353.40">
        <route edges="-E3 E4"/>
    </vehicle>
    <vehicle id="188" depart="357.20">
        <route edges="-E4 E1"/>
    </vehicle>
    <vehicle id="190" depart="361.00">
        <route edges="-E4 E1"/>
    </vehicle>
    <vehicle id="191" depart="362.90">
        <route edges="-E3 E1"/>
    </vehicle>
    <vehicle id="192" depart="364.80">
        <route edges="-E3 E4"/>
    </vehicle>
    <vehicle id="193" depart="366.70">
        <route edges="-E2 E3"/>
    </vehicle>
    <vehicle id="194" depart="368.60">
        <route edges="-E1 E2"/>
    </vehicle>
    <vehicle id="195" depart="370.50">
        <route edges="-E2 E4"/>
    </vehicle>
    <vehicle id="196" depart="372.40">
        <route edges="-E3 E4"/>
    </vehicle>
    <vehicle id="199" depart="378.10">
        <route edges="-E1 E2"/>
    </vehicle>
    <vehicle id="201" depart="381.90">
        <route edges="-E2 E4"/>
    </vehicle>
    <vehicle id="203" depart="385.70">
        <route edges="-E4 E2"/>
    </vehicle>
    <vehicle id="205" depart="389.50">
        <route edges="-E2 E4"/>
    </vehicle>
    <vehicle id="206" depart="391.40">
        <route edges="-E2 E1"/>
    </vehicle>
    <vehicle id="207" depart="393.30">
        <route edges="-E4 E3"/>
    </vehicle>
    <vehicle id="208" depart="395.20">
        <route edges="-E3 E2"/>
    </vehicle>
    <vehicle id="211" depart="400.90">
        <route edges="-E4 E2"/>
    </vehicle>
    <vehicle id="212" depart="402.80">
        <route edges="-E4 E2"/>
    </vehicle>
    <vehicle id="214" depart="406.60">
        <route edges="-E2 E4"/>
    </vehicle>
    <vehicle id="215" depart="408.50">
        <route edges="-E3 E4"/>
    </vehicle>
    <vehicle id="216" depart="410.40">
        <route edges="-E3 E1"/>
    </vehicle>
    <vehicle id="217" depart="412.30">
        <route edges="-E1 E3"/>
    </vehicle>
    <vehicle id="218" depart="414.20">
        <route edges="-E4 E3"/>
    </vehicle>
    <vehicle id="220" depart="418.00">
        <route edges="-E4 E3"/>
    </vehicle>
    <vehicle id="222" depart="421.80">
        <route edges="-E4 E3"/>
    </vehicle>
    <vehicle id="224" depart="425.60">
        <route edges="-E4 E3"/>
    </vehicle>
    <vehicle id="225" depart="427.50">
        <route edges="-E4 E2"/>
    </vehicle>
    <vehicle id="227" depart="431.30">
        <route edges="-E3 E4"/>
    </vehicle>
    <vehicle id="228" depart="433.20">
        <route edges="-E4 E3"/>
    </vehicle>
    <vehicle id="229" depart="435.10">
        <route edges="-E4 E1"/>
    </vehicle>
    <vehicle id="231" depart="438.90">
        <route edges="-E4 E3"/>
    </vehicle>
    <vehicle id="232" depart="440.80">
        <route edges="-E3 E1"/>
    </vehicle>
    <vehicle id="233" depart="442.70">
        <route edges="-E2 E3"/>
    </vehicle>
    <vehicle id="234" depart="444.60">
        <route edges="-E3 E1"/>
    </vehicle>
    <vehicle id="235" depart="446.50">
        <route edges="-E1 E3"/>
    </vehicle>
    <vehicle id="236" depart="448.40">
        <route edges="-E1 E3"/>
    </vehicle>
    <vehicle id="237" depart="450.30">
        <route edges="-E2 E3"/>
    </vehicle>
    <vehicle id="239" depart="454.10">
        <route edges="-E2 E1"/>
    </vehicle>
    <vehicle id="240" depart="456.00">
        <route edges="-E1 E4"/>
    </vehicle>
    <vehicle id="244" depart="463.60">
        <route edges="-E3 E4"/>
    </vehicle>
    <vehicle id="246" depart="467.40">
        <route edges="-E4 E1"/>
    </vehicle>
    <vehicle id="247" depart="469.30">
        <route edges="-E4 E3"/>
    </vehicle>
    <vehicle id="248" depart="471.20">
        <route edges="-E2 E1"/>
    </vehicle>
    <vehicle id="249" depart="473.10">
        <route edges="-E4 E2"/>
    </vehicle>
    <vehicle id="250" depart="475.00">
        <route edges="-E3 E2"/>
    </vehicle>
    <vehicle id="251" depart="476.90">
        <route edges="-E4 E3"/>
    </vehicle>
    <vehicle id="252" depart="478.80">
        <route edges="-E3 E1"/>
    </vehicle>
    <vehicle id="254" depart="482.60">
        <route edges="-E4 E3"/>
    </vehicle>
    <vehicle id="255" depart="484.50">
        <route edges="-E4 E2"/>
    </vehicle>
    <vehicle id="256" depart="486.40">
        <route edges="-E1 E3"/>
    </vehicle>
    <vehicle id="257" depart="488.30">
        <route edges="-E3 E2"/>
    </vehicle>
    <vehicle id="258" depart="490.20">
        <route edges="-E1 E4"/>
    </vehicle>
    <vehicle id="260" depart="494.00">
        <route edges="-E4 E3"/>
    </vehicle>
    <vehicle id="261" depart="495.90">
        <route edges="-E4 E1"/>
    </vehicle>
    <vehicle id="262" depart="497.80">
        <route edges="-E4 E3"/>
    </vehicle>
    <vehicle id="265" depart="503.50">
        <route edges="-E3 E4"/>
    </vehicle>
    <vehicle id="266" depart="505.40">
        <route edges="-E4 E2"/>
    </vehicle>
    <vehicle id="267" depart="507.30">
        <route edges="-E2 E4"/>
    </vehicle>
    <vehicle id="268" depart="509.20">
        <route edges="-E3 E1"/>
    </vehicle>
    <vehicle id="269" depart="511.10">
        <route edges="-E3 E1"/>
    </vehicle>
    <vehicle id="270" depart="513.00">
        <route edges="-E1 E4"/>
    </vehicle>
    <vehicle id="271" depart="514.90">
        <route edges="-E4 E1"/>
    </vehicle>
    <vehicle id="272" depart="516.80">
        <route edges="-E3 E2"/>
    </vehicle>
    <vehicle id="273" depart="518.70">
        <route edges="-E2 E4"/>
    </vehicle>
    <vehicle id="274" depart="520.60">
        <route edges="-E3 E2"/>
    </vehicle>
    <vehicle id="276" depart="524.40">
        <route edges="-E3 E2"/>
    </vehicle>
    <vehicle id="277" depart="526.30">
        <route edges="-E2 E1"/>
    </vehicle>
    <vehicle id="278" depart="528.20">
        <route edges="-E2 E1"/>
    </vehicle>
    <vehicle id="279" depart="530.10">
        <route edges="-E1 E4"/>
    </vehicle>
    <vehicle id="280" depart="532.00">
        <route edges="-E2 E3"/>
    </vehicle>
    <vehicle id="282" depart="535.80">
        <route edges="-E1 E2"/>
    </vehicle>
    <vehicle id="283" depart="537.70">
        <route edges="-E4 E3"/>
    </vehicle>
    <vehicle id="284" depart="539.60">
        <route edges="-E3 E4"/>
    </vehicle>
    <vehicle id="286" depart="543.40">
        <route edges="-E1 E4"/>
    </vehicle>
    <vehicle id="287" depart="545.30">
        <route edges="-E2 E3"/>
    </vehicle>
    <vehicle id="288" depart="547.20">
        <route edges="-E2 E4"/>
    </vehicle>
    <vehicle id="289" depart="549.10">
        <route edges="-E4 E2"/>
    </vehicle>
    <vehicle id="291" depart="552.90">
        <route edges="-E1 E2"/>
    </vehicle>
    <vehicle id="292" depart="554.80">
        <route edges="-E3 E4"/>
    </vehicle>
    <vehicle id="294" depart="558.60">
        <route edges="-E1 E4"/>
    </vehicle>
    <vehicle id="296" depart="562.40">
        <route edges="-E3 E1"/>
    </vehicle>
    <vehicle id="297" depart="564.30">
        <route edges="-E4 E3"/>
    </vehicle>
    <vehicle id="299" depart="568.10">
        <route edges="-E3 E1"/>
    </vehicle>
    <vehicle id="300" depart="570.00">
        <route edges="-E2 E3"/>
    </vehicle>
    <vehicle id="301" depart="571.90">
        <route edges="-E4 E1"/>
    </vehicle>
    <vehicle id="303" depart="575.70">
        <route edges="-E2 E4"/>
    </vehicle>
    <vehicle id="304" depart="577.60">
        <route edges="-E1 E2"/>
    </vehicle>
    <vehicle id="305" depart="579.50">
        <route edges="-E1 E4"/>
    </vehicle>
    <vehicle id="307" depart="583.30">
        <route edges="-E1 E2"/>
    </vehicle>
    <vehicle id="308" depart="585.20">
        <route edges="-E1 E4"/>
    </vehicle>
    <vehicle id="310" depart="589.00">
        <route edges="-E2 E3"/>
    </vehicle>
    <vehicle id="311" depart="590.90">
        <route edges="-E1 E4"/>
    </vehicle>
    <vehicle id="312" depart="592.80">
        <route edges="-E2 E3"/>
    </vehicle>
    <vehicle id="313" depart="594.70">
        <route edges="-E3 E4"/>
    </vehicle>
    <vehicle id="314" depart="596.60">
        <route edges="-E3 E4"/>
    </vehicle>
    <vehicle id="316" depart="600.40">
        <route edges="-E3 E2"/>
    </vehicle>
    <vehicle id="318" depart="604.20">
        <route edges="-E1 E4"/>
    </vehicle>
    <vehicle id="319" depart="606.10">
        <route edges="-E3 E4"/>
    </vehicle>
    <vehicle id="320" depart="608.00">
        <route edges="-E4 E2"/>
    </vehicle>
    <vehicle id="321" depart="609.90">
        <route edges="-E4 E3"/>
    </vehicle>
    <vehicle id="322" depart="611.80">
        <route edges="-E1 E4"/>
    </vehicle>
    <vehicle id="323" depart="613.70">
        <route edges="-E4 E1"/>
    </vehicle>
    <vehicle id="325" depart="617.50">
        <route edges="-E3 E2"/>
    </vehicle>
    <vehicle id="326" depart="619.40">
        <route edges="-E4 E3"/>
    </vehicle>
    <vehicle id="327" depart="621.30">
        <route edges="-E4 E1"/>
    </vehicle>
    <vehicle id="328" depart="623.20">
        <route edges="-E2 E1"/>
    </vehicle>
    <vehicle id="329" depart="625.10">
        <route edges="-E4 E1"/>
    </vehicle>
    <vehicle id="330" depart="627.00">
        <route edges="-E2 E1"/>
    </vehicle>
    <vehicle id="331" depart="628.90">
        <route edges="-E1 E2"/>
    </vehicle>
    <vehicle id="332" depart="630.80">
        <route edges="-E1 E2"/>
    </vehicle>
    <vehicle id="333" depart="632.70">
        <route edges="-E1 E3"/>
    </vehicle>
    <vehicle id="334" depart="634.60">
        <route edges="-E4 E2"/>
    </vehicle>
    <vehicle id="335" depart="636.50">
        <route edges="-E4 E2"/>
    </vehicle>
    <vehicle id="337" depart="640.30">
        <route edges="-E2 E4"/>
    </vehicle>
    <vehicle id="338" depart="642.20">
        <route edges="-E1 E2"/>
    </vehicle>
    <vehicle id="339" depart="644.10">
        <route edges="-E2 E1"/>
    </vehicle>
    <vehicle id="340" depart="646.00">
        <route edges="-E2 E1"/>
    </vehicle>
    <vehicle id="341" depart="647.90">
        <route edges="-E1 E2"/>
    </vehicle>
    <vehicle id="343" depart="651.70">
        <route edges="-E3 E2"/>
    </vehicle>
    <vehicle id="344" depart="653.60">
        <route edges="-E2 E4"/>
    </vehicle>
    <vehicle id="345" depart="655.50">
        <route edges="-E3 E2"/>
    </vehicle>
    <vehicle id="346" depart="657.40">
        <route edges="-E2 E3"/>
    </vehicle>
    <vehicle id="347" depart="659.30">
        <route edges="-E1 E3"/>
    </vehicle>
    <vehicle id="348" depart="661.20">
        <route edges="-E2 E4"/>
    </vehicle>
    <vehicle id="349" depart="663.10">
        <route edges="-E2 E4"/>
    </vehicle>
    <vehicle id="350" depart="665.00">
        <route edges="-E2 E3"/>
    </vehicle>
    <vehicle id="352" depart="668.80">
        <route edges="-E3 E1"/>
    </vehicle>
    <vehicle id="353" depart="670.70">
        <route edges="-E1 E2"/>
    </vehicle>
    <vehicle id="356" depart="676.40">
        <route edges="-E4 E2"/>
    </vehicle>
    <vehicle id="357" depart="678.30">
        <route edges="-E4 E1"/>
    </vehicle>
    <vehicle id="358" depart="680.20">
        <route edges="-E4 E1"/>
    </vehicle>
    <vehicle id="359" depart="682.10">
        <route edges="-E1 E2"/>
    </vehicle>
    <vehicle id="362" depart="687.80">
        <route edges="-E4 E3"/>
    </vehicle>
    <vehicle id="363" depart="689.70">
        <route edges="-E2 E4"/>
    </vehicle>
    <vehicle id="364" depart="691.60">
        <route edges="-E1 E2"/>
    </vehicle>
    <vehicle id="365" depart="693.50">
        <route edges="-E1 E2"/>
    </vehicle>
    <vehicle id="366" depart="695.40">
        <route edges="-E1 E3"/>
    </vehicle>
    <vehicle id="368" depart="699.20">
        <route edges="-E3 E2"/>
    </vehicle>
    <vehicle id="369" depart="701.10">
        <route edges="-E3 E2"/>
    </vehicle>
    <vehicle id="370" depart="703.00">
        <route edges="-E3 E4"/>
    </vehicle>
    <vehicle id="371" depart="704.90">
        <route edges="-E3 E2"/>
    </vehicle>
    <vehicle id="373" depart="708.70">
        <route edges="-E4 E3"/>
    </vehicle>
    <vehicle id="375" depart="712.50">
        <route edges="-E1 E4"/>
    </vehicle>
    <vehicle id="376" depart="714.40">
        <route edges="-E4 E1"/>
    </vehicle>
    <vehicle id="377" depart="716.30">
        <route edges="-E3 E4"/>
    </vehicle>
    <vehicle id="378" depart="718.20">
        <route edges="-E4 E3"/>
    </vehicle>
    <vehicle id="379" depart="720.10">
        <route edges="-E2 E3"/>
    </vehicle>
    <vehicle id="380" depart="722.00">
        <route edges="-E2 E4"/>
    </vehicle>
    <vehicle id="382" depart="725.80">
        <route edges="-E3 E1"/>
    </vehicle>
    <vehicle id="383" depart="727.70">
        <route edges="-E2 E4"/>
    </vehicle>
    <vehicle id="384" depart="729.60">
        <route edges="-E1 E2"/>
    </vehicle>
    <vehicle id="385" depart="731.50">
        <route edges="-E1 E3"/>
    </vehicle>
    <vehicle id="386" depart="733.40">
        <route edges="-E4 E3"/>
    </vehicle>
    <vehicle id="387" depart="735.30">
        <route edges="-E4 E2"/>
    </vehicle>
    <vehicle id="388" depart="737.20">
        <route edges="-E1 E3"/>
    </vehicle>
    <vehicle id="389" depart="739.10">
        <route edges="-E2 E1"/>
    </vehicle>
    <vehicle id="390" depart="741.00">
        <route edges="-E3 E1"/>
    </vehicle>
    <vehicle id="391" depart="742.90">
        <route edges="-E4 E1"/>
    </vehicle>
    <vehicle id="392" depart="744.80">
        <route edges="-E3 E1"/>
    </vehicle>
    <vehicle id="393" depart="746.70">
        <route edges="-E4 E1"/>
    </vehicle>
    <vehicle id="394" depart="748.60">
        <route edges="-E4 E3"/>
    </vehicle>
    <vehicle id="395" depart="750.50">
        <route edges="-E3 E1"/>
    </vehicle>
    <vehicle id="396" depart="752.40">
        <route edges="-E1 E2"/>
    </vehicle>
    <vehicle id="398" depart="756.20">
        <route edges="-E3 E2"/>
    </vehicle>
    <vehicle id="399" depart="758.10">
        <route edges="-E4 E3"/>
    </vehicle>
    <vehicle id="400" depart="760.00">
        <route edges="-E4 E3"/>
    </vehicle>
    <vehicle id="402" depart="763.80">
        <route edges="-E4 E1"/>
    </vehicle>
    <vehicle id="403" depart="765.70">
        <route edges="-E2 E3"/>
    </vehicle>
    <vehicle id="404" depart="767.60">
        <route edges="-E4 E3"/>
    </vehicle>
    <vehicle id="405" depart="769.50">
        <route edges="-E3 E4"/>
    </vehicle>
    <vehicle id="406" depart="771.40">
        <route edges="-E4 E3"/>
    </vehicle>
    <vehicle id="407" depart="773.30">
        <route edges="-E1 E4"/>
    </vehicle>
    <vehicle id="408" depart="775.20">
        <route edges="-E3 E2"/>
    </vehicle>
    <vehicle id="409" depart="777.10">
        <route edges="-E3 E1"/>
    </vehicle>
    <vehicle id="410" depart="779.00">
        <route edges="-E1 E4"/>
    </vehicle>
    <vehicle id="411" depart="780.90">
        <route edges="-E4 E2"/>
    </vehicle>
    <vehicle id="413" depart="784.70">
        <route edges="-E4 E1"/>
    </vehicle>
    <vehicle id="414" depart="786.60">
        <route edges="-E2 E4"/>
    </vehicle>
    <vehicle id="415" depart="788.50">
        <route edges="-E3 E4"/>
    </vehicle>
    <vehicle id="416" depart="790.40">
        <route edges="-E4 E1"/>
    </vehicle>
    <vehicle id="421" depart="799.90">
        <route edges="-E2 E3"/>
    </vehicle>
    <vehicle id="422" depart="801.80">
        <route edges="-E2 E4"/>
    </vehicle>
    <vehicle id="423" depart="803.70">
        <route edges="-E2 E3"/>
    </vehicle>
    <vehicle id="425" depart="807.50">
        <route edges="-E2 E4"/>
    </vehicle>
    <vehicle id="426" depart="809.40">
        <route edges="-E1 E4"/>
    </vehicle>
    <vehicle id="427" depart="811.30">
        <route edges="-E3 E2"/>
    </vehicle>
    <vehicle id="428" depart="813.20">
        <route edges="-E4 E3"/>
    </vehicle>
    <vehicle id="429" depart="815.10">
        <route edges="-E1 E3"/>
    </vehicle>
    <vehicle id="432" depart="820.80">
        <route edges="-E1 E3"/>
    </vehicle>
    <vehicle id="433" depart="822.70">
        <route edges="-E2 E4"/>
    </vehicle>
    <vehicle id="434" depart="824.60">
        <route edges="-E4 E3"/>
    </vehicle>
    <vehicle id="435" depart="826.50">
        <route edges="-E1 E4"/>
    </vehicle>
    <vehicle id="436" depart="828.40">