<?xml version="1.0" encoding="UTF-8"?>

<!-- generated on 2023-04-28 13:27:12 by Eclipse SUMO netedit Version 1.15.0
<configuration xmlns:xsi="http://www.w3.org/2001/XMLSchema-instance" xsi:noNamespaceSchemaLocation="http://sumo.dlr.de/xsd/netconvertConfiguration.xsd">

    <input>
        <sumo-net-file value="junction_route.net.xml"/>
    </input>

    <output>
        <output-file value="junction_route.net.xml"/>
        <output.street-names value="true"/>
    </output>

    <processing>
        <geometry.min-radius.fix.railways value="false"/>
        <geometry.max-grade.fix value="false"/>
        <offset.disable-normalization value="true"/>
        <lefthand value="1"/>
    </processing>

    <junctions>
        <no-turnarounds value="true"/>
        <junctions.corner-detail value="5"/>
        <junctions.limit-turn-speed value="5.50"/>
        <rectangular-lane-cut value="0"/>
    </junctions>

    <pedestrian>
        <walkingareas value="0"/>
    </pedestrian>

</configuration>
-->

<net version="1.9" junctionCornerDetail="5" lefthand="true" limitTurnSpeed="5.50" xmlns:xsi="http://www.w3.org/2001/XMLSchema-instance" xsi:noNamespaceSchemaLocation="http://sumo.dlr.de/xsd/net_file.xsd">

    <location netOffset="-428629.16,860853.54" convBoundary="0.00,0.00,3376.96,1242.05" origBoundary="110.352700,-7.787449,110.379257,-7.775406" projParameter="+proj=utm +zone=49 +ellps=WGS84 +datum=WGS84 +units=m +no_defs"/>

    <type id="highway.bridleway" priority="1" numLanes="1" speed="2.78" allow="pedestrian" oneway="1" width="2.00"/>
    <type id="highway.bus_guideway" priority="1" numLanes="1" speed="27.78" allow="bus" oneway="1"/>
    <type id="highway.cycleway" priority="1" numLanes="1" speed="5.56" allow="bicycle" oneway="0" width="1.00"/>
    <type id="highway.footway" priority="1" numLanes="1" speed="2.78" allow="pedestrian" oneway="1" width="2.00"/>
    <type id="highway.ford" priority="1" numLanes="1" speed="2.78" allow="army" oneway="0"/>
    <type id="highway.living_street" priority="2" numLanes="1" speed="2.78" disallow="tram rail_urban rail rail_electric rail_fast ship" oneway="0"/>
    <type id="highway.motorway" priority="14" numLanes="2" speed="39.44" allow="private emergency authority army vip passenger hov taxi bus coach delivery truck trailer motorcycle evehicle custom1 custom2" oneway="1"/>
    <type id="highway.motorway_link" priority="9" numLanes="1" speed="22.22" allow="private emergency authority army vip passenger hov taxi bus coach delivery truck trailer motorcycle evehicle custom1 custom2" oneway="1"/>
    <type id="highway.path" priority="1" numLanes="1" speed="5.56" allow="pedestrian bicycle" oneway="0" width="2.00"/>
    <type id="highway.pedestrian" priority="1" numLanes="1" speed="2.78" allow="pedestrian" oneway="1" width="2.00"/>
    <type id="highway.primary" priority="12" numLanes="2" speed="27.78" disallow="tram rail_urban rail rail_electric rail_fast ship" oneway="0"/>
    <type id="highway.primary_link" priority="7" numLanes="1" speed="22.22" disallow="tram rail_urban rail rail_electric rail_fast ship" oneway="0"/>
    <type id="highway.raceway" priority="15" numLanes="2" speed="83.33" allow="vip" oneway="0"/>
    <type id="highway.residential" priority="3" numLanes="1" speed="13.89" disallow="tram rail_urban rail rail_electric rail_fast ship" oneway="0"/>
    <type id="highway.secondary" priority="11" numLanes="1" speed="27.78" disallow="tram rail_urban rail rail_electric rail_fast ship" oneway="0"/>
    <type id="highway.secondary_link" priority="6" numLanes="1" speed="22.22" disallow="tram rail_urban rail rail_electric rail_fast ship" oneway="0"/>
    <type id="highway.service" priority="1" numLanes="1" speed="5.56" allow="pedestrian delivery bicycle" oneway="0"/>
    <type id="highway.stairs" priority="1" numLanes="1" speed="1.39" allow="pedestrian" oneway="1" width="2.00"/>
    <type id="highway.step" priority="1" numLanes="1" speed="1.39" allow="pedestrian" oneway="1" width="2.00"/>
    <type id="highway.steps" priority="1" numLanes="1" speed="1.39" allow="pedestrian" oneway="1" width="2.00"/>
    <type id="highway.tertiary" priority="10" numLanes="1" speed="22.22" disallow="tram rail_urban rail rail_electric rail_fast ship" oneway="0"/>
    <type id="highway.tertiary_link" priority="5" numLanes="1" speed="22.22" disallow="tram rail_urban rail rail_electric rail_fast ship" oneway="0"/>
    <type id="highway.track" priority="1" numLanes="1" speed="5.56" allow="pedestrian motorcycle moped bicycle" oneway="0"/>
    <type id="highway.trunk" priority="13" numLanes="2" speed="27.78" disallow="pedestrian bicycle tram rail_urban rail rail_electric rail_fast ship" oneway="0"/>
    <type id="highway.trunk_link" priority="8" numLanes="1" speed="22.22" disallow="pedestrian bicycle tram rail_urban rail rail_electric rail_fast ship" oneway="0"/>
    <type id="highway.unclassified" priority="4" numLanes="1" speed="13.89" disallow="tram rail_urban rail rail_electric rail_fast ship" oneway="0"/>
    <type id="highway.unsurfaced" priority="1" numLanes="1" speed="8.33" disallow="tram rail_urban rail rail_electric rail_fast ship" oneway="0"/>
    <type id="railway.highspeed" priority="21" numLanes="1" speed="69.44" allow="rail_fast" oneway="1"/>
    <type id="railway.light_rail" priority="19" numLanes="1" speed="27.78" allow="rail_urban" oneway="1"/>
    <type id="railway.preserved" priority="16" numLanes="1" speed="27.78" allow="rail" oneway="1"/>
    <type id="railway.rail" priority="20" numLanes="1" speed="44.44" allow="rail" oneway="1"/>
    <type id="railway.subway" priority="18" numLanes="1" speed="27.78" allow="rail_urban" oneway="1"/>
    <type id="railway.tram" priority="17" numLanes="1" speed="13.89" allow="tram" oneway="1"/>

    <edge id=":1001305074#1-AddedOnRampNode_0" function="internal">
        <lane id=":1001305074#1-AddedOnRampNode_0_0" index="0" disallow="tram rail_urban rail rail_electric rail_fast ship" speed="27.78" length="8.00" shape="2445.63,382.52 2444.37,374.62"/>
        <lane id=":1001305074#1-AddedOnRampNode_0_1" index="1" disallow="tram rail_urban rail rail_electric rail_fast ship" speed="27.78" length="8.00" shape="2442.47,383.03 2441.21,375.13"/>
    </edge>
    <edge id=":1262692922_0" function="internal">
        <lane id=":1262692922_0_0" index="0" disallow="tram rail_urban rail rail_electric rail_fast ship" speed="27.78" length="8.15" shape="2048.18,506.40 2050.59,506.64 2052.21,507.16 2053.83,507.67 2056.24,507.83"/>
        <lane id=":1262692922_0_1" index="1" disallow="tram rail_urban rail rail_electric rail_fast ship" speed="27.78" length="8.15" shape="2048.17,503.20 2050.55,503.44 2052.15,503.96 2053.74,504.47 2056.12,504.63"/>
        <lane id=":1262692922_0_2" index="2" disallow="tram rail_urban rail rail_electric rail_fast ship" speed="27.78" length="8.15" shape="2048.17,503.20 2050.52,502.94 2052.09,502.37 2053.65,501.77 2056.00,501.44"/>
    </edge>
    <edge id=":1664896774_0" function="internal">
        <lane id=":1664896774_0_0" index="0" disallow="tram rail_urban rail rail_electric rail_fast ship" speed="20.84" length="0.32" shape="1729.77,496.59 1729.44,496.59"/>
        <lane id=":1664896774_0_1" index="1" disallow="tram rail_urban rail rail_electric rail_fast ship" speed="20.84" length="0.32" shape="1729.80,499.79 1729.50,499.79"/>
    </edge>
    <edge id=":1664896774_2" function="internal">
        <lane id=":1664896774_2_0" index="0" disallow="tram rail_urban rail rail_electric rail_fast ship" speed="3.65" length="2.34" shape="1729.80,499.79 1728.61,500.60 1728.22,501.40"/>
    </edge>
    <edge id=":1664896774_5" function="internal">
        <lane id=":1664896774_5_0" index="0" disallow="tram rail_urban rail rail_electric rail_fast ship" speed="3.65" length="2.34" shape="1728.22,501.40 1728.63,502.20 1729.83,502.99"/>
    </edge>
    <edge id=":1664896774_3" function="internal">
        <lane id=":1664896774_3_0" index="0" disallow="tram rail_urban rail rail_electric rail_fast ship" speed="20.84" length="0.28" shape="1729.60,506.19 1729.87,506.19"/>
        <lane id=":1664896774_3_1" index="1" disallow="tram rail_urban rail rail_electric rail_fast ship" speed="20.84" length="0.28" shape="1729.55,502.99 1729.83,502.99"/>
    </edge>
    <edge id=":1903473308_0" function="internal">
        <lane id=":1903473308_0_0" index="0" disallow="tram rail_urban rail rail_electric rail_fast ship" speed="15.76" length="8.49" shape="2495.53,491.78 2493.13,491.48 2491.62,490.68 2490.19,489.55 2488.02,488.23"/>
    </edge>
    <edge id=":1903473308_1" function="internal">
        <lane id=":1903473308_1_0" index="0" disallow="tram rail_urban rail rail_electric rail_fast ship" speed="27.78" length="8.63" shape="2495.53,491.78 2486.90,491.79"/>
        <lane id=":1903473308_1_1" index="1" disallow="tram rail_urban rail rail_electric rail_fast ship" speed="27.78" length="8.63" shape="2495.54,494.98 2486.91,494.99"/>
        <lane id=":1903473308_1_2" index="2" disallow="tram rail_urban rail rail_electric rail_fast ship" speed="27.78" length="8.63" shape="2495.55,498.18 2486.92,498.19"/>
    </edge>
    <edge id=":1903473313_0" function="internal">
        <lane id=":1903473313_0_0" index="0" disallow="tram rail_urban rail rail_electric rail_fast ship" speed="27.78" length="8.20" shape="2070.80,493.74 2068.39,493.53 2066.78,493.02 2065.16,492.50 2062.76,492.32"/>
        <lane id=":1903473313_0_1" index="1" disallow="tram rail_urban rail rail_electric rail_fast ship" speed="27.78" length="8.20" shape="2070.85,496.94 2068.46,496.73 2066.85,496.21 2065.24,495.70 2062.85,495.52"/>
    </edge>
    <edge id=":1903473340_0" function="internal">
        <lane id=":1903473340_0_0" index="0" disallow="tram rail_urban rail rail_electric rail_fast ship" speed="25.00" length="2.96" shape="2440.71,461.01 2441.09,463.95"/>
    </edge>
    <edge id=":1903473340_1" function="internal">
        <lane id=":1903473340_1_0" index="0" disallow="tram rail_urban rail rail_electric rail_fast ship" speed="27.78" length="3.02" shape="2443.89,460.59 2444.29,463.56"/>
        <lane id=":1903473340_1_1" index="1" disallow="tram rail_urban rail rail_electric rail_fast ship" speed="27.78" length="3.02" shape="2447.06,460.17 2447.47,463.18"/>
    </edge>
    <edge id=":1903473341_0" function="internal">
        <lane id=":1903473341_0_0" index="0" disallow="tram rail_urban rail rail_electric rail_fast ship" speed="27.78" length="3.02" shape="2461.25,479.72 2460.76,476.78"/>
        <lane id=":1903473341_0_1" index="1" disallow="tram rail_urban rail rail_electric rail_fast ship" speed="27.78" length="3.02" shape="2458.10,480.28 2457.60,477.28"/>
    </edge>
    <edge id=":1903473341_2" function="internal">
        <lane id=":1903473341_2_0" index="0" disallow="tram rail_urban rail rail_electric rail_fast ship" speed="25.00" length="3.04" shape="2463.71,479.28 2463.85,478.39 2463.98,477.77 2464.02,477.16 2463.92,476.27"/>
    </edge>
    <edge id=":1903473346_0" function="internal">
        <lane id=":1903473346_0_0" index="0" disallow="tram rail_urban rail rail_electric rail_fast ship" speed="10.55" length="15.25" shape="2437.15,486.96 2435.40,488.75 2432.45,490.03 2428.32,490.81 2423.00,491.09"/>
    </edge>
    <edge id=":1903473346_1" function="internal">
        <lane id=":1903473346_1_0" index="0" disallow="tram rail_urban rail rail_electric rail_fast ship" speed="27.78" length="15.17" shape="2438.18,491.14 2423.00,491.09"/>
        <lane id=":1903473346_1_1" index="1" disallow="tram rail_urban rail rail_electric rail_fast ship" speed="27.78" length="15.17" shape="2438.18,494.34 2423.02,494.29"/>
    </edge>
    <edge id=":1903473346_3" function="internal">
        <lane id=":1903473346_3_0" index="0" disallow="tram rail_urban rail rail_electric rail_fast ship" speed="25.00" length="11.53" shape="2423.05,500.69 2426.47,501.04 2428.81,501.92 2430.98,503.06 2433.92,504.15"/>
    </edge>
    <edge id=":1903473346_4" function="internal">
        <lane id=":1903473346_4_0" index="0" disallow="tram rail_urban rail rail_electric rail_fast ship" speed="27.78" length="15.13" shape="2423.05,500.69 2438.17,500.74"/>
        <lane id=":1903473346_4_1" index="1" disallow="tram rail_urban rail rail_electric rail_fast ship" speed="27.78" length="15.13" shape="2423.03,497.49 2438.18,497.54"/>
    </edge>
    <edge id=":1903473360_0" function="internal">
        <lane id=":1903473360_0_0" index="0" disallow="tram rail_urban rail rail_electric rail_fast ship" speed="27.78" length="12.64" shape="1969.36,493.97 1965.75,494.42 1963.26,494.49 1960.76,494.40 1957.11,494.35"/>
        <lane id=":1903473360_0_1" index="1" disallow="tram rail_urban rail rail_electric rail_fast ship" speed="27.78" length="12.64" shape="1970.13,497.08 1966.31,497.57 1963.67,497.67 1961.01,497.59 1957.15,497.55"/>
    </edge>
    <edge id=":1903473360_2" function="internal">
        <lane id=":1903473360_2_0" index="0" disallow="tram rail_urban rail rail_electric rail_fast ship" speed="27.78" length="5.38" shape="1957.22,503.95 1958.56,504.04 1959.45,504.30 1960.34,504.64 1961.65,505.01"/>
        <lane id=":1903473360_2_1" index="1" disallow="tram rail_urban rail rail_electric rail_fast ship" speed="27.78" length="5.38" shape="1957.18,500.75 1958.99,500.85 1960.20,501.16 1961.40,501.59 1963.17,502.07"/>
    </edge>
    <edge id=":1903473360_4" function="internal">
        <lane id=":1903473360_4_0" index="0" disallow="tram rail_urban rail rail_electric rail_fast ship" speed="3.65" length="1.44" shape="1957.18,500.75 1958.37,499.94"/>
    </edge>
    <edge id=":1903473360_5" function="internal">
        <lane id=":1903473360_5_0" index="0" disallow="tram rail_urban rail rail_electric rail_fast ship" speed="3.65" length="3.23" shape="1958.37,499.94 1958.76,499.13 1958.36,498.34 1957.15,497.55"/>
    </edge>
    <edge id=":1903473363_0" function="internal">
        <lane id=":1903473363_0_0" index="0" disallow="tram rail_urban rail rail_electric rail_fast ship" speed="10.76" length="14.76" shape="2444.24,506.87 2447.14,508.67 2449.42,511.23 2451.08,514.55 2452.12,518.63"/>
    </edge>
    <edge id=":1903473363_1" function="internal">
        <lane id=":1903473363_1_0" index="0" disallow="tram rail_urban rail rail_electric rail_fast ship" speed="27.78" length="13.34" shape="2449.95,505.46 2452.12,518.63"/>
        <lane id=":1903473363_1_1" index="1" disallow="tram rail_urban rail rail_electric rail_fast ship" speed="27.78" length="13.34" shape="2453.11,504.94 2455.28,518.11"/>
    </edge>
    <edge id=":275864990_0" function="internal">
        <lane id=":275864990_0_0" index="0" disallow="pedestrian tram rail_urban rail rail_electric rail_fast ship" speed="11.11" length="0.30" shape="574.96,507.47 574.67,507.50"/>
        <lane id=":275864990_0_1" index="1" disallow="pedestrian tram rail_urban rail rail_electric rail_fast ship" speed="11.11" length="0.30" shape="575.32,510.65 575.01,510.69"/>
    </edge>
    <edge id=":3885907857_0" function="internal">
        <lane id=":3885907857_0_0" index="0" disallow="tram rail_urban rail rail_electric rail_fast ship" speed="27.78" length="9.09" shape="2203.55,492.23 2200.81,491.76 2199.02,490.76 2197.23,489.84 2194.51,489.64"/>
        <lane id=":3885907857_0_1" index="1" disallow="tram rail_urban rail rail_electric rail_fast ship" speed="27.78" length="9.09" shape="2203.57,495.43 2200.92,494.96 2199.20,493.95 2197.48,493.03 2194.85,492.82"/>
        <lane id=":3885907857_0_2" index="2" disallow="tram rail_urban rail rail_electric rail_fast ship" speed="27.78" length="9.09" shape="2203.57,495.43 2201.08,495.46 2199.37,495.56 2197.67,495.73 2195.18,496.00"/>
    </edge>
    <edge id=":3885907857_3" function="internal">
        <lane id=":3885907857_3_0" index="0" disallow="tram rail_urban rail rail_electric rail_fast ship" speed="27.78" length="7.95" shape="2195.82,501.97 2203.61,501.83"/>
        <lane id=":3885907857_3_1" index="1" disallow="tram rail_urban rail rail_electric rail_fast ship" speed="27.78" length="7.95" shape="2195.48,498.78 2203.59,498.63"/>
    </edge>
    <edge id=":5634358076_0" function="internal">
        <lane id=":5634358076_0_0" index="0" disallow="tram rail_urban rail rail_electric rail_fast ship" speed="11.11" length="8.44" shape="464.18,536.99 466.59,536.91 468.25,537.66 469.92,538.44 472.36,538.49"/>
        <lane id=":5634358076_0_1" index="1" disallow="tram rail_urban rail rail_electric rail_fast ship" speed="11.11" length="8.44" shape="464.18,536.99 471.76,535.34"/>
        <lane id=":5634358076_0_2" index="2" disallow="tram rail_urban rail rail_electric rail_fast ship" speed="11.11" length="8.44" shape="464.18,536.99 466.42,535.93 467.66,534.51 468.90,533.14 471.17,532.20"/>
        <lane id=":5634358076_0_3" index="3" disallow="tram rail_urban rail rail_electric rail_fast ship" speed="11.11" length="8.44" shape="463.42,533.88 465.71,532.81 466.98,531.38 468.26,530.00 470.58,529.06"/>
    </edge>
    <edge id=":5634425523_0" function="internal">
        <lane id=":5634425523_0_0" index="0" disallow="tram rail_urban rail rail_electric rail_fast ship" speed="11.11" length="8.61" shape="517.26,523.51 519.66,523.56 521.26,524.41 522.87,525.32 525.29,525.57"/>
        <lane id=":5634425523_0_1" index="1" disallow="tram rail_urban rail rail_electric rail_fast ship" speed="11.11" length="8.61" shape="516.67,520.36 519.14,520.41 520.80,521.24 522.47,522.14 524.96,522.38"/>
    </edge>
    <edge id=":5634480388_0" function="internal">
        <lane id=":5634480388_0_0" index="0" disallow="tram rail_urban rail rail_electric rail_fast ship" speed="11.11" length="11.10" shape="768.05,507.53 756.96,507.58"/>
        <lane id=":5634480388_0_1" index="1" disallow="tram rail_urban rail rail_electric rail_fast ship" speed="11.11" length="11.10" shape="768.07,510.73 756.96,510.78"/>
    </edge>
    <edge id=":5634480388_2" function="internal">
        <lane id=":5634480388_2_0" index="0" disallow="pedestrian tram rail_urban rail rail_electric rail_fast ship" speed="5.95" length="7.32" shape="762.55,514.18 762.18,512.69 761.13,511.63 759.39,510.99 756.96,510.78"/>
    </edge>
    <edge id=":5634480389_0" function="internal">
        <lane id=":5634480389_0_0" index="0" disallow="tram rail_urban rail rail_electric rail_fast ship" speed="11.11" length="11.27" shape="756.96,521.03 768.27,520.94"/>
        <lane id=":5634480389_0_1" index="1" disallow="tram rail_urban rail rail_electric rail_fast ship" speed="11.11" length="11.27" shape="756.97,517.83 768.21,517.74"/>
    </edge>
    <edge id=":5634480389_2" function="internal">
        <lane id=":5634480389_2_0" index="0" disallow="pedestrian tram rail_urban rail rail_electric rail_fast ship" speed="5.92" length="7.39" shape="756.97,517.83 759.43,517.62 761.18,516.98 762.22,515.90 762.55,514.38"/>
    </edge>
    <edge id=":5634480395_0" function="internal">
        <lane id=":5634480395_0_0" index="0" disallow="tram rail_urban rail rail_electric rail_fast ship" speed="12.50" length="0.37" shape="1407.27,500.23 1406.83,500.23"/>
        <lane id=":5634480395_0_1" index="1" disallow="tram rail_urban rail rail_electric rail_fast ship" speed="12.50" length="0.37" shape="1407.21,503.43 1406.90,503.43"/>
    </edge>
    <edge id=":5634480395_2" function="internal">
        <lane id=":5634480395_2_0" index="0" disallow="tram rail_urban rail rail_electric rail_fast ship" speed="12.50" length="0.11" shape="1407.04,509.83 1407.09,509.83"/>
        <lane id=":5634480395_2_1" index="1" disallow="tram rail_urban rail rail_electric rail_fast ship" speed="12.50" length="0.11" shape="1406.97,506.63 1407.15,506.63"/>
    </edge>
    <edge id=":5636850486_0" function="internal">
        <lane id=":5636850486_0_0" index="0" disallow="tram rail_urban rail rail_electric rail_fast ship" speed="11.11" length="0.83" shape="1237.54,503.93 1237.29,503.96 1237.11,504.00 1236.94,504.05 1236.69,504.08"/>
        <lane id=":5636850486_0_1" index="1" disallow="tram rail_urban rail rail_electric rail_fast ship" speed="11.11" length="0.83" shape="1237.57,507.13 1237.34,507.16 1237.19,507.20 1237.03,507.25 1236.81,507.28"/>
    </edge>
    <edge id=":5636850486_2" function="internal">
        <lane id=":5636850486_2_0" index="0" disallow="tram rail_urban rail rail_electric rail_fast ship" speed="11.11" length="0.65" shape="1237.04,513.43 1237.21,513.45 1237.33,513.49 1237.45,513.52 1237.63,513.53"/>
        <lane id=":5636850486_2_1" index="1" disallow="tram rail_urban rail rail_electric rail_fast ship" speed="11.11" length="0.65" shape="1236.92,510.22 1237.12,510.24 1237.26,510.28 1237.40,510.32 1237.60,510.33"/>
    </edge>
    <edge id=":5636898866_0" function="internal">
        <lane id=":5636898866_0_0" index="0" disallow="pedestrian tram rail_urban rail rail_electric rail_fast ship" speed="11.11" length="0.43" shape="584.44,506.43 584.25,506.43 584.12,506.43 583.99,506.44 583.80,506.46"/>
        <lane id=":5636898866_0_1" index="1" disallow="pedestrian tram rail_urban rail rail_electric rail_fast ship" speed="11.11" length="0.43" shape="584.37,509.63 584.31,509.63 584.27,509.63 584.22,509.64 584.16,509.64"/>
    </edge>
    <edge id=":908329006-AddedOffRampNode_0" function="internal">
        <lane id=":908329006-AddedOffRampNode_0_0" index="0" disallow="tram rail_urban rail rail_electric rail_fast ship" speed="27.78" length="8.27" shape="2427.08,359.57 2427.06,362.08 2426.28,363.80 2425.49,365.52 2425.47,368.04"/>
        <lane id=":908329006-AddedOffRampNode_0_1" index="1" disallow="tram rail_urban rail rail_electric rail_fast ship" speed="27.78" length="8.27" shape="2427.08,359.57 2428.62,367.42"/>
        <lane id=":908329006-AddedOffRampNode_0_2" index="2" disallow="tram rail_urban rail rail_electric rail_fast ship" speed="27.78" length="8.27" shape="2430.23,358.96 2431.76,366.81"/>
    </edge>
    <edge id=":J0_0" function="internal">
        <lane id=":J0_0_0" index="0" speed="13.89" length="0.12" shape="1572.62,478.52 1572.64,478.69"/>
        <lane id=":J0_0_1" index="1" speed="13.89" length="0.12" shape="1575.81,478.20 1575.81,478.26"/>
    </edge>
    <edge id=":J11_0" function="internal">
        <lane id=":J11_0_0" index="0" speed="13.89" length="0.30" shape="1538.39,512.22 1538.70,512.22"/>
        <lane id=":J11_0_1" index="1" speed="13.89" length="0.30" shape="1538.45,509.02 1538.73,509.02"/>
    </edge>
    <edge id=":J12_0" function="internal">
        <lane id=":J12_0_0" index="0" speed="13.89" length="0.29" shape="1538.70,502.64 1538.42,502.64"/>
        <lane id=":J12_0_1" index="1" speed="13.89" length="0.29" shape="1538.68,505.84 1538.37,505.84"/>
    </edge>
    <edge id=":J13_0" function="internal">
        <lane id=":J13_0_0" index="0" speed="13.89" length="0.29" shape="1591.13,537.74 1591.09,537.43"/>
        <lane id=":J13_0_1" index="1" speed="13.89" length="0.29" shape="1587.95,538.11 1587.92,537.84"/>
    </edge>
    <edge id=":J14_0" function="internal">
        <lane id=":J14_0_0" index="0" speed="13.89" length="0.30" shape="1581.53,538.60 1581.56,538.89"/>
        <lane id=":J14_0_1" index="1" speed="13.89" length="0.30" shape="1584.70,538.20 1584.74,538.51"/>
    </edge>
    <edge id=":J2_0" function="internal">
        <lane id=":J2_0_0" index="0" speed="13.89" length="0.26" shape="1581.84,475.86 1581.82,475.68"/>
        <lane id=":J2_0_1" index="1" speed="13.89" length="0.26" shape="1578.67,476.32 1578.63,475.99"/>
    </edge>
    <edge id=":J4_0" function="internal">
        <lane id=":J4_0_0" index="0" speed="13.89" length="18.76" shape="1564.01,495.25 1559.78,498.47 1556.78,500.83 1553.51,502.27 1548.44,502.72"/>
        <lane id=":J4_0_1" index="1" speed="13.89" length="18.76" shape="1565.81,497.90 1561.09,501.43 1557.73,503.95 1554.05,505.46 1548.41,505.92"/>
    </edge>
    <edge id=":J4_2" function="internal">
        <lane id=":J4_2_0" index="0" speed="8.81" length="24.15" shape="1565.81,497.90 1560.42,502.71 1558.81,507.29 1560.99,511.62 1566.95,515.71"/>
    </edge>
    <edge id=":J4_3" function="internal">
        <lane id=":J4_3_0" index="0" speed="5.69" length="9.22" shape="1569.83,510.00 1567.56,508.44 1566.73,506.78 1567.34,505.04 1569.40,503.20"/>
    </edge>
    <edge id=":J4_4" function="internal">
        <lane id=":J4_4_0" index="0" speed="13.89" length="22.20" shape="1569.83,510.00 1564.13,506.97 1559.54,504.70 1554.74,503.26 1548.44,502.72"/>
        <lane id=":J4_4_1" index="1" speed="13.89" length="22.20" shape="1568.39,512.85 1562.91,509.88 1558.80,507.73 1554.50,506.40 1548.41,505.92"/>
    </edge>
    <edge id=":J4_6" function="internal">
        <lane id=":J4_6_0" index="0" speed="13.89" length="18.57" shape="1548.36,512.31 1553.74,512.75 1557.30,513.93 1560.67,515.86 1565.50,518.57"/>
    </edge>
    <edge id=":J4_7" function="internal">
        <lane id=":J4_7_0" index="0" speed="13.89" length="10.46" shape="1548.36,512.31 1554.70,511.72 1558.53,510.27"/>
        <lane id=":J4_7_1" index="1" speed="13.89" length="4.29" shape="1548.38,509.11 1552.65,508.75"/>
    </edge>
    <edge id=":J4_9" function="internal">
        <lane id=":J4_9_0" index="0" speed="3.65" length="1.44" shape="1548.38,509.11 1549.59,508.32"/>
    </edge>
    <edge id=":J4_10" function="internal">
        <lane id=":J4_10_0" index="0" speed="13.89" length="13.00" shape="1558.53,510.27 1559.52,509.89 1564.02,507.00 1569.40,503.20"/>
    </edge>
    <edge id=":J4_11" function="internal">
        <lane id=":J4_11_0" index="0" speed="13.89" length="17.33" shape="1552.65,508.75 1554.44,508.60 1558.64,506.97 1562.51,504.27 1567.60,500.55"/>
    </edge>
    <edge id=":J4_12" function="internal">
        <lane id=":J4_12_0" index="0" speed="3.65" length="3.22" shape="1549.59,508.32 1549.99,507.53 1549.60,506.73 1548.41,505.92"/>
    </edge>
    <edge id=":J5_0" function="internal">
        <lane id=":J5_0_0" index="0" speed="6.94" length="6.36" shape="1587.00,515.15 1585.50,515.94 1584.00,516.28 1582.49,516.18 1580.97,515.63"/>
        <lane id=":J5_0_1" index="1" speed="8.46" length="9.76" shape="1588.79,517.81 1586.50,519.00 1584.20,519.51 1581.87,519.34 1579.53,518.48"/>
    </edge>
    <edge id=":J5_2" function="internal">
        <lane id=":J5_2_0" index="0" speed="9.56" length="13.31" shape="1588.79,517.81 1586.16,520.07 1584.41,522.74 1583.55,525.81 1583.57,529.27"/>
    </edge>
    <edge id=":J5_3" function="internal">
        <lane id=":J5_3_0" index="0" speed="6.70" length="6.21" shape="1589.94,528.47 1589.93,526.85 1590.33,525.42 1591.14,524.17 1592.36,523.11"/>
    </edge>
    <edge id=":J5_4" function="internal">
        <lane id=":J5_4_0" index="0" speed="10.31" length="13.19" shape="1586.77,528.87 1585.97,525.52 1584.49,522.68 1582.35,520.33 1579.53,518.48"/>
    </edge>
    <edge id=":J5_5" function="internal">
        <lane id=":J5_5_0" index="0" speed="7.59" length="6.93" shape="1576.64,524.20 1578.10,525.16 1579.22,526.39 1579.98,527.90 1580.40,529.67"/>
    </edge>
    <edge id=":J5_6" function="internal">
        <lane id=":J5_6_0" index="0" speed="10.88" length="7.21" shape="1576.64,524.20 1580.65,525.66 1583.58,525.89"/>
        <lane id=":J5_6_1" index="1" speed="9.75" length="3.08" shape="1578.08,521.34 1580.98,522.39"/>
    </edge>
    <edge id=":J5_8" function="internal">
        <lane id=":J5_8_0" index="0" speed="10.88" length="9.37" shape="1583.58,525.89 1584.61,525.96 1588.51,525.12 1592.36,523.11"/>
    </edge>
    <edge id=":J5_9" function="internal">
        <lane id=":J5_9_0" index="0" speed="9.75" length="10.09" shape="1580.98,522.39 1581.26,522.50 1584.40,522.74 1587.51,522.06 1590.57,520.46"/>
    </edge>
    <edge id=":J6_0" function="internal">
        <lane id=":J6_0_0" index="0" speed="13.89" length="20.01" shape="1617.86,498.84 1612.05,498.90 1608.12,497.95 1604.33,496.15 1598.90,493.66"/>
        <lane id=":J6_0_1" index="1" speed="13.89" length="21.24" shape="1617.86,502.05 1611.80,502.08 1607.51,501.07 1603.35,499.18 1597.70,496.63"/>
    </edge>
    <edge id=":J6_2" function="internal">
        <lane id=":J6_2_0" index="0" speed="13.89" length="22.72" shape="1617.86,502.05 1611.68,503.13 1607.18,505.12 1602.99,508.00 1597.75,511.76"/>
    </edge>
    <edge id=":J6_3" function="internal">
        <lane id=":J6_3_0" index="0" speed="13.89" length="19.96" shape="1601.33,517.07 1605.86,513.63 1609.00,511.10 1612.44,509.42 1617.85,508.53"/>
        <lane id=":J6_3_1" index="1" speed="13.89" length="19.96" shape="1599.54,514.41 1604.50,510.74 1608.07,508.04 1611.95,506.26 1617.85,505.32"/>
    </edge>
    <edge id=":J6_5" function="internal">
        <lane id=":J6_5_0" index="0" speed="8.81" length="25.29" shape="1599.54,514.41 1605.33,509.32 1606.95,504.66 1604.41,500.43 1597.70,496.63"/>
    </edge>
    <edge id=":J6_6" function="internal">
        <lane id=":J6_6_0" index="0" speed="5.60" length="9.32" shape="1595.28,502.55 1597.75,503.96 1598.69,505.51 1598.09,507.23 1595.96,509.11"/>
    </edge>
    <edge id=":J6_7" function="internal">
        <lane id=":J6_7_0" index="0" speed="13.89" length="23.06" shape="1595.28,502.55 1601.31,505.18 1606.30,507.23 1611.42,508.43 1617.85,508.53"/>
        <lane id=":J6_7_1" index="1" speed="13.89" length="23.06" shape="1596.49,499.59 1602.33,502.18 1606.90,504.14 1611.61,505.26 1617.85,505.32"/>
    </edge>
    <edge id=":J7_0" function="internal">
        <lane id=":J7_0_0" index="0" speed="7.11" length="6.52" shape="1586.66,488.67 1585.24,487.87 1584.16,486.77 1583.40,485.37 1582.97,483.66"/>
    </edge>
    <edge id=":J7_1" function="internal">
        <lane id=":J7_1_0" index="0" speed="11.35" length="16.32" shape="1586.66,488.67 1582.66,487.54 1578.73,487.46 1574.88,488.43 1571.11,490.44"/>
        <lane id=":J7_1_1" index="1" speed="10.24" length="13.17" shape="1585.45,491.63 1582.23,490.73 1579.07,490.67 1575.96,491.46 1572.91,493.09"/>
    </edge>
    <edge id=":J7_3" function="internal">