<?xml version="1.0" encoding="UTF-8"?>

<!-- generated on 2023-05-08 20:15:40 by Eclipse SUMO netedit Version 1.15.0
<configuration xmlns:xsi="http://www.w3.org/2001/XMLSchema-instance" xsi:noNamespaceSchemaLocation="http://sumo.dlr.de/xsd/netconvertConfiguration.xsd">

    <input>
        <sumo-net-file value="one_intersection.net.xml"/>
    </input>

    <output>
        <output-file value="one_intersection.net.xml"/>
        <output.street-names value="true"/>
    </output>

    <processing>
        <geometry.min-radius.fix.railways value="false"/>
        <geometry.max-grade.fix value="false"/>
        <offset.disable-normalization value="true"/>
        <lefthand value="1"/>
    </processing>

    <junctions>
        <no-turnarounds value="true"/>
        <junctions.corner-detail value="5"/>
        <junctions.limit-turn-speed value="5.50"/>
        <rectangular-lane-cut value="0"/>
    </junctions>

    <pedestrian>
        <walkingareas value="0"/>
    </pedestrian>

</configuration>
-->

<net version="1.9" junctionCornerDetail="5" lefthand="true" limitTurnSpeed="5.50" xmlns:xsi="http://www.w3.org/2001/XMLSchema-instance" xsi:noNamespaceSchemaLocation="http://sumo.dlr.de/xsd/net_file.xsd">

    <location netOffset="-428629.16,860853.54" convBoundary="1626.10,78.31,3376.96,1242.05" origBoundary="110.352700,-7.787449,110.379257,-7.775406" projParameter="+proj=utm +zone=49 +ellps=WGS84 +datum=WGS84 +units=m +no_defs"/>

    <type id="highway.bridleway" priority="1" numLanes="1" speed="2.78" allow="pedestrian" oneway="1" width="2.00"/>
    <type id="highway.bus_guideway" priority="1" numLanes="1" speed="27.78" allow="bus" oneway="1"/>
    <type id="highway.cycleway" priority="1" numLanes="1" speed="5.56" allow="bicycle" oneway="0" width="1.00"/>
    <type id="highway.footway" priority="1" numLanes="1" speed="2.78" allow="pedestrian" oneway="1" width="2.00"/>
    <type id="highway.ford" priority="1" numLanes="1" speed="2.78" allow="army" oneway="0"/>
    <type id="highway.living_street" priority="2" numLanes="1" speed="2.78" disallow="tram rail_urban rail rail_electric rail_fast ship" oneway="0"/>
    <type id="highway.motorway" priority="14" numLanes="2" speed="39.44" allow="private emergency authority army vip passenger hov taxi bus coach delivery truck trailer motorcycle evehicle custom1 custom2" oneway="1"/>
    <type id="highway.motorway_link" priority="9" numLanes="1" speed="22.22" allow="private emergency authority army vip passenger hov taxi bus coach delivery truck trailer motorcycle evehicle custom1 custom2" oneway="1"/>
    <type id="highway.path" priority="1" numLanes="1" speed="5.56" allow="pedestrian bicycle" oneway="0" width="2.00"/>
    <type id="highway.pedestrian" priority="1" numLanes="1" speed="2.78" allow="pedestrian" oneway="1" width="2.00"/>
    <type id="highway.primary" priority="12" numLanes="2" speed="27.78" disallow="tram rail_urban rail rail_electric rail_fast ship" oneway="0"/>
    <type id="highway.primary_link" priority="7" numLanes="1" speed="22.22" disallow="tram rail_urban rail rail_electric rail_fast ship" oneway="0"/>
    <type id="highway.raceway" priority="15" numLanes="2" speed="83.33" allow="vip" oneway="0"/>
    <type id="highway.residential" priority="3" numLanes="1" speed="13.89" disallow="tram rail_urban rail rail_electric rail_fast ship" oneway="0"/>
    <type id="highway.secondary" priority="11" numLanes="1" speed="27.78" disallow="tram rail_urban rail rail_electric rail_fast ship" oneway="0"/>
    <type id="highway.secondary_link" priority="6" numLanes="1" speed="22.22" disallow="tram rail_urban rail rail_electric rail_fast ship" oneway="0"/>
    <type id="highway.service" priority="1" numLanes="1" speed="5.56" allow="pedestrian delivery bicycle" oneway="0"/>
    <type id="highway.stairs" priority="1" numLanes="1" speed="1.39" allow="pedestrian" oneway="1" width="2.00"/>
    <type id="highway.step" priority="1" numLanes="1" speed="1.39" allow="pedestrian" oneway="1" width="2.00"/>
    <type id="highway.steps" priority="1" numLanes="1" speed="1.39" allow="pedestrian" oneway="1" width="2.00"/>
    <type id="highway.tertiary" priority="10" numLanes="1" speed="22.22" disallow="tram rail_urban rail rail_electric rail_fast ship" oneway="0"/>
    <type id="highway.tertiary_link" priority="5" numLanes="1" speed="22.22" disallow="tram rail_urban rail rail_electric rail_fast ship" oneway="0"/>
    <type id="highway.track" priority="1" numLanes="1" speed="5.56" allow="pedestrian motorcycle moped bicycle" oneway="0"/>
    <type id="highway.trunk" priority="13" numLanes="2" speed="27.78" disallow="pedestrian bicycle tram rail_urban rail rail_electric rail_fast ship" oneway="0"/>
    <type id="highway.trunk_link" priority="8" numLanes="1" speed="22.22" disallow="pedestrian bicycle tram rail_urban rail rail_electric rail_fast ship" oneway="0"/>
    <type id="highway.unclassified" priority="4" numLanes="1" speed="13.89" disallow="tram rail_urban rail rail_electric rail_fast ship" oneway="0"/>
    <type id="highway.unsurfaced" priority="1" numLanes="1" speed="8.33" disallow="tram rail_urban rail rail_electric rail_fast ship" oneway="0"/>
    <type id="railway.highspeed" priority="21" numLanes="1" speed="69.44" allow="rail_fast" oneway="1"/>
    <type id="railway.light_rail" priority="19" numLanes="1" speed="27.78" allow="rail_urban" oneway="1"/>
    <type id="railway.preserved" priority="16" numLanes="1" speed="27.78" allow="rail" oneway="1"/>
    <type id="railway.rail" priority="20" numLanes="1" speed="44.44" allow="rail" oneway="1"/>
    <type id="railway.subway" priority="18" numLanes="1" speed="27.78" allow="rail_urban" oneway="1"/>
    <type id="railway.tram" priority="17" numLanes="1" speed="13.89" allow="tram" oneway="1"/>

    <edge id=":1001305074#1-AddedOnRampNode_0" function="internal">
        <lane id=":1001305074#1-AddedOnRampNode_0_0" index="0" disallow="tram rail_urban rail rail_electric rail_fast ship" speed="27.78" length="8.00" shape="2445.63,382.52 2444.37,374.62"/>
        <lane id=":1001305074#1-AddedOnRampNode_0_1" index="1" disallow="tram rail_urban rail rail_electric rail_fast ship" speed="27.78" length="8.00" shape="2442.47,383.03 2441.21,375.13"/>
    </edge>
    <edge id=":1262692922_0" function="internal">
        <lane id=":1262692922_0_0" index="0" disallow="tram rail_urban rail rail_electric rail_fast ship" speed="27.78" length="8.15" shape="2048.18,506.40 2050.59,506.64 2052.21,507.16 2053.83,507.67 2056.24,507.83"/>
        <lane id=":1262692922_0_1" index="1" disallow="tram rail_urban rail rail_electric rail_fast ship" speed="27.78" length="8.15" shape="2048.17,503.20 2050.55,503.44 2052.15,503.96 2053.74,504.47 2056.12,504.63"/>
        <lane id=":1262692922_0_2" index="2" disallow="tram rail_urban rail rail_electric rail_fast ship" speed="27.78" length="8.15" shape="2048.17,503.20 2050.52,502.94 2052.09,502.37 2053.65,501.77 2056.00,501.44"/>
    </edge>
    <edge id=":1664896774_0" function="internal">
        <lane id=":1664896774_0_0" index="0" disallow="tram rail_urban rail rail_electric rail_fast ship" speed="20.84" length="0.32" shape="1729.77,496.59 1729.44,496.59"/>
        <lane id=":1664896774_0_1" index="1" disallow="tram rail_urban rail rail_electric rail_fast ship" speed="20.84" length="0.32" shape="1729.80,499.79 1729.50,499.79"/>
    </edge>
    <edge id=":1664896774_2" function="internal">
        <lane id=":1664896774_2_0" index="0" disallow="tram rail_urban rail rail_electric rail_fast ship" speed="3.65" length="2.34" shape="1729.80,499.79 1728.61,500.60 1728.22,501.40"/>
    </edge>
    <edge id=":1664896774_5" function="internal">
        <lane id=":1664896774_5_0" index="0" disallow="tram rail_urban rail rail_electric rail_fast ship" speed="3.65" length="2.34" shape="1728.22,501.40 1728.63,502.20 1729.83,502.99"/>
    </edge>
    <edge id=":1664896774_3" function="internal">
        <lane id=":1664896774_3_0" index="0" disallow="tram rail_urban rail rail_electric rail_fast ship" speed="20.84" length="0.28" shape="1729.60,506.19 1729.87,506.19"/>
        <lane id=":1664896774_3_1" index="1" disallow="tram rail_urban rail rail_electric rail_fast ship" speed="20.84" length="0.28" shape="1729.55,502.99 1729.83,502.99"/>
    </edge>
    <edge id=":1903473308_0" function="internal">
        <lane id=":1903473308_0_0" index="0" disallow="tram rail_urban rail rail_electric rail_fast ship" speed="15.76" length="8.49" shape="2495.53,491.78 2493.13,491.48 2491.62,490.68 2490.19,489.55 2488.02,488.23"/>
    </edge>
    <edge id=":1903473308_1" function="internal">
        <lane id=":1903473308_1_0" index="0" disallow="tram rail_urban rail rail_electric rail_fast ship" speed="27.78" length="8.63" shape="2495.53,491.78 2486.90,491.79"/>
        <lane id=":1903473308_1_1" index="1" disallow="tram rail_urban rail rail_electric rail_fast ship" speed="27.78" length="8.63" shape="2495.54,494.98 2486.91,494.99"/>
        <lane id=":1903473308_1_2" index="2" disallow="tram rail_urban rail rail_electric rail_fast ship" speed="27.78" length="8.63" shape="2495.55,498.18 2486.92,498.19"/>
    </edge>
    <edge id=":1903473313_0" function="internal">
        <lane id=":1903473313_0_0" index="0" disallow="tram rail_urban rail rail_electric rail_fast ship" speed="27.78" length="8.20" shape="2070.80,493.74 2068.39,493.53 2066.78,493.02 2065.16,492.50 2062.76,492.32"/>
        <lane id=":1903473313_0_1" index="1" disallow="tram rail_urban rail rail_electric rail_fast ship" speed="27.78" length="8.20" shape="2070.85,496.94 2068.46,496.73 2066.85,496.21 2065.24,495.70 2062.85,495.52"/>
    </edge>
    <edge id=":1903473340_0" function="internal">
        <lane id=":1903473340_0_0" index="0" disallow="tram rail_urban rail rail_electric rail_fast ship" speed="25.00" length="2.96" shape="2440.71,461.01 2441.09,463.95"/>
    </edge>
    <edge id=":1903473340_1" function="internal">
        <lane id=":1903473340_1_0" index="0" disallow="tram rail_urban rail rail_electric rail_fast ship" speed="27.78" length="3.02" shape="2443.89,460.59 2444.29,463.56"/>
        <lane id=":1903473340_1_1" index="1" disallow="tram rail_urban rail rail_electric rail_fast ship" speed="27.78" length="3.02" shape="2447.06,460.17 2447.47,463.18"/>
    </edge>
    <edge id=":1903473341_0" function="internal">
        <lane id=":1903473341_0_0" index="0" disallow="tram rail_urban rail rail_electric rail_fast ship" speed="27.78" length="3.02" shape="2461.25,479.72 2460.76,476.78"/>
        <lane id=":1903473341_0_1" index="1" disallow="tram rail_urban rail rail_electric rail_fast ship" speed="27.78" length="3.02" shape="2458.10,480.28 2457.60,477.28"/>
    </edge>
    <edge id=":1903473341_2" function="internal">
        <lane id=":1903473341_2_0" index="0" disallow="tram rail_urban rail rail_electric rail_fast ship" speed="25.00" length="3.04" shape="2463.71,479.28 2463.85,478.39 2463.98,477.77 2464.02,477.16 2463.92,476.27"/>
    </edge>
    <edge id=":1903473346_0" function="internal">
        <lane id=":1903473346_0_0" index="0" disallow="tram rail_urban rail rail_electric rail_fast ship" speed="10.55" length="15.25" shape="2437.15,486.96 2435.40,488.75 2432.45,490.03 2428.32,490.81 2423.00,491.09"/>
    </edge>
    <edge id=":1903473346_1" function="internal">
        <lane id=":1903473346_1_0" index="0" disallow="tram rail_urban rail rail_electric rail_fast ship" speed="27.78" length="15.17" shape="2438.18,491.14 2423.00,491.09"/>
        <lane id=":1903473346_1_1" index="1" disallow="tram rail_urban rail rail_electric rail_fast ship" speed="27.78" length="15.17" shape="2438.18,494.34 2423.02,494.29"/>
    </edge>
    <edge id=":1903473346_3" function="internal">
        <lane id=":1903473346_3_0" index="0" disallow="tram rail_urban rail rail_electric rail_fast ship" speed="25.00" length="11.53" shape="2423.05,500.69 2426.47,501.04 2428.81,501.92 2430.98,503.06 2433.92,504.15"/>
    </edge>
    <edge id=":1903473346_4" function="internal">
        <lane id=":1903473346_4_0" index="0" disallow="tram rail_urban rail rail_electric rail_fast ship" speed="27.78" length="15.13" shape="2423.05,500.69 2438.17,500.74"/>
        <lane id=":1903473346_4_1" index="1" disallow="tram rail_urban rail rail_electric rail_fast ship" speed="27.78" length="15.13" shape="2423.03,497.49 2438.18,497.54"/>
    </edge>
    <edge id=":1903473360_0" function="internal">
        <lane id=":1903473360_0_0" index="0" disallow="tram rail_urban rail rail_electric rail_fast ship" speed="27.78" length="12.64" shape="1969.36,493.97 1965.75,494.42 1963.26,494.49 1960.76,494.40 1957.11,494.35"/>
        <lane id=":1903473360_0_1" index="1" disallow="tram rail_urban rail rail_electric rail_fast ship" speed="27.78" length="12.64" shape="1970.13,497.08 1966.31,497.57 1963.67,497.67 1961.01,497.59 1957.15,497.55"/>
    </edge>
    <edge id=":1903473360_2" function="internal">
        <lane id=":1903473360_2_0" index="0" disallow="tram rail_urban rail rail_electric rail_fast ship" speed="27.78" length="5.38" shape="1957.22,503.95 1958.56,504.04 1959.45,504.30 1960.34,504.64 1961.65,505.01"/>
        <lane id=":1903473360_2_1" index="1" disallow="tram rail_urban rail rail_electric rail_fast ship" speed="27.78" length="5.38" shape="1957.18,500.75 1958.99,500.85 1960.20,501.16 1961.40,501.59 1963.17,502.07"/>
    </edge>
    <edge id=":1903473360_4" function="internal">
        <lane id=":1903473360_4_0" index="0" disallow="tram rail_urban rail rail_electric rail_fast ship" speed="3.65" length="1.44" shape="1957.18,500.75 1958.37,499.94"/>
    </edge>
    <edge id=":1903473360_5" function="internal">
        <lane id=":1903473360_5_0" index="0" disallow="tram rail_urban rail rail_electric rail_fast ship" speed="3.65" length="3.23" shape="1958.37,499.94 1958.76,499.13 1958.36,498.34 1957.15,497.55"/>
    </edge>
    <edge id=":1903473363_0" function="internal">
        <lane id=":1903473363_0_0" index="0" disallow="tram rail_urban rail rail_electric rail_fast ship" speed="10.76" length="14.76" shape="2444.24,506.87 2447.14,508.67 2449.42,511.23 2451.08,514.55 2452.12,518.63"/>
    </edge>
    <edge id=":1903473363_1" function="internal">
        <lane id=":1903473363_1_0" index="0" disallow="tram rail_urban rail rail_electric rail_fast ship" speed="27.78" length="13.34" shape="2449.95,505.46 2452.12,518.63"/>
        <lane id=":1903473363_1_1" index="1" disallow="tram rail_urban rail rail_electric rail_fast ship" speed="27.78" length="13.34" shape="2453.11,504.94 2455.28,518.11"/>
    </edge>
    <edge id=":3885907857_0" function="internal">
        <lane id=":3885907857_0_0" index="0" disallow="tram rail_urban rail rail_electric rail_fast ship" speed="27.78" length="9.09" shape="2203.55,492.23 2200.81,491.76 2199.02,490.76 2197.23,489.84 2194.51,489.64"/>
        <lane id=":3885907857_0_1" index="1" disallow="tram rail_urban rail rail_electric rail_fast ship" speed="27.78" length="9.09" shape="2203.57,495.43 2200.92,494.96 2199.20,493.95 2197.48,493.03 2194.85,492.82"/>
        <lane id=":3885907857_0_2" index="2" disallow="tram rail_urban rail rail_electric rail_fast ship" speed="27.78" length="9.09" shape="2203.57,495.43 2201.08,495.46 2199.37,495.56 2197.67,495.73 2195.18,496.00"/>
    </edge>
    <edge id=":3885907857_3" function="internal">
        <lane id=":3885907857_3_0" index="0" disallow="tram rail_urban rail rail_electric rail_fast ship" speed="27.78" length="7.95" shape="2195.82,501.97 2203.61,501.83"/>
        <lane id=":3885907857_3_1" index="1" disallow="tram rail_urban rail rail_electric rail_fast ship" speed="27.78" length="7.95" shape="2195.48,498.78 2203.59,498.63"/>
    </edge>
    <edge id=":908329006-AddedOffRampNode_0" function="internal">
        <lane id=":908329006-AddedOffRampNode_0_0" index="0" disallow="tram rail_urban rail rail_electric rail_fast ship" speed="27.78" length="8.27" shape="2427.08,359.57 2427.06,362.08 2426.28,363.80 2425.49,365.52 2425.47,368.04"/>
        <lane id=":908329006-AddedOffRampNode_0_1" index="1" disallow="tram rail_urban rail rail_electric rail_fast ship" speed="27.78" length="8.27" shape="2427.08,359.57 2428.62,367.42"/>
        <lane id=":908329006-AddedOffRampNode_0_2" index="2" disallow="tram rail_urban rail rail_electric rail_fast ship" speed="27.78" length="8.27" shape="2430.23,358.96 2431.76,366.81"/>
    </edge>
    <edge id=":cluster_1903473311_3885907862_0" function="internal">
        <lane id=":cluster_1903473311_3885907862_0_0" index="0" disallow="tram rail_urban rail rail_electric rail_fast ship" speed="27.78" length="10.45" shape="2169.79,489.93 2166.88,489.59 2164.87,489.42 2162.86,489.38 2159.93,489.41"/>
        <lane id=":cluster_1903473311_3885907862_0_1" index="1" disallow="tram rail_urban rail rail_electric rail_fast ship" speed="27.78" length="10.45" shape="2170.39,493.22 2167.31,492.85 2165.20,492.66 2163.07,492.59 2159.98,492.61"/>
        <lane id=":cluster_1903473311_3885907862_0_2" index="2" disallow="tram rail_urban rail rail_electric rail_fast ship" speed="27.78" length="10.45" shape="2170.99,496.52 2167.75,496.12 2165.52,495.89 2163.29,495.80 2160.02,495.81"/>
    </edge>
    <edge id=":cluster_1903473311_3885907862_3" function="internal">
        <lane id=":cluster_1903473311_3885907862_3_0" index="0" disallow="tram rail_urban rail rail_electric rail_fast ship" speed="27.78" length="12.12" shape="2160.17,505.72 2163.78,505.50 2166.20,504.80 2168.60,503.87 2172.17,503.00"/>
        <lane id=":cluster_1903473311_3885907862_3_1" index="1" disallow="tram rail_urban rail rail_electric rail_fast ship" speed="27.78" length="12.12" shape="2160.12,502.51 2163.58,502.30 2165.89,501.60 2168.18,500.70 2171.59,499.85"/>
    </edge>
    <edge id=":cluster_1903473311_3885907862_5" function="internal">
        <lane id=":cluster_1903473311_3885907862_5_0" index="0" disallow="tram rail_urban rail rail_electric rail_fast ship" speed="3.78" length="1.79" shape="2160.07,499.31 2161.37,498.42 2161.47,498.23"/>
    </edge>
    <edge id=":cluster_1903473311_3885907862_6" function="internal">
        <lane id=":cluster_1903473311_3885907862_6_0" index="0" disallow="tram rail_urban rail rail_electric rail_fast ship" speed="3.78" length="3.32" shape="2161.47,498.23 2161.80,497.54 2161.35,496.67 2160.02,495.81"/>
    </edge>
    <edge id=":simpang_gramedia_0" function="internal">
        <lane id=":simpang_gramedia_0_0" index="0" disallow="tram rail_urban rail rail_electric rail_fast ship" speed="8.27" length="13.52" shape="2470.01,491.87 2466.98,491.35 2464.59,489.66 2462.85,486.80 2461.76,482.77"/>
    </edge>
    <edge id=":simpang_gramedia_1" function="internal">
        <lane id=":simpang_gramedia_1_0" index="0" disallow="tram rail_urban rail rail_electric rail_fast ship" speed="27.78" length="27.89" shape="2470.01,491.87 2442.11,491.14"/>
        <lane id=":simpang_gramedia_1_1" index="1" disallow="tram rail_urban rail rail_electric rail_fast ship" speed="27.78" length="27.89" shape="2470.07,495.07 2442.20,494.34"/>
    </edge>
    <edge id=":simpang_gramedia_3" function="internal">
        <lane id=":simpang_gramedia_3_0" index="0" disallow="tram rail_urban rail rail_electric rail_fast ship" speed="9.72" length="23.84" shape="2470.07,495.07 2463.63,496.03 2456.87,498.38 2451.67,501.62 2449.92,505.27"/>
        <lane id=":simpang_gramedia_3_1" index="1" disallow="tram rail_urban rail rail_electric rail_fast ship" speed="8.72" length="18.93" shape="2470.13,498.27 2464.83,498.90 2459.13,500.39 2454.67,502.45 2453.08,504.75"/>
    </edge>
    <edge id=":simpang_gramedia_5" function="internal">
        <lane id=":simpang_gramedia_5_0" index="0" disallow="tram rail_urban rail rail_electric rail_fast ship" speed="27.78" length="21.66" shape="2465.17,504.16 2461.76,482.77"/>
    </edge>
    <edge id=":simpang_gramedia_6" function="internal">
        <lane id=":simpang_gramedia_6_0" index="0" disallow="tram rail_urban rail rail_electric rail_fast ship" speed="11.91" length="28.98" shape="2465.17,504.16 2463.00,498.47 2458.43,494.40 2451.47,491.96 2442.11,491.14"/>
    </edge>
    <edge id=":simpang_gramedia_7" function="internal">
        <lane id=":simpang_gramedia_7_0" index="0" disallow="tram rail_urban rail rail_electric rail_fast ship" speed="27.78" length="21.65" shape="2462.01,504.68 2458.60,483.30"/>
    </edge>
    <edge id=":simpang_gramedia_8" function="internal">
        <lane id=":simpang_gramedia_8_0" index="0" disallow="tram rail_urban rail rail_electric rail_fast ship" speed="10.95" length="24.35" shape="2462.01,504.68 2460.19,500.16 2456.29,496.93 2450.29,494.99 2442.20,494.34"/>
    </edge>
    <edge id=":simpang_gramedia_9" function="internal">
        <lane id=":simpang_gramedia_9_0" index="0" disallow="tram rail_urban rail rail_electric rail_fast ship" speed="7.11" length="9.62" shape="2442.39,500.74 2445.41,501.02 2447.67,501.87 2449.17,503.29 2449.92,505.27"/>
    </edge>
    <edge id=":simpang_gramedia_10" function="internal">
        <lane id=":simpang_gramedia_10_0" index="0" disallow="tram rail_urban rail rail_electric rail_fast ship" speed="10.59" length="28.90" shape="2442.39,500.74 2449.34,499.16 2455.92,495.01 2460.58,489.24 2461.76,482.77"/>
        <lane id=":simpang_gramedia_10_1" index="1" disallow="tram rail_urban rail rail_electric rail_fast ship" speed="9.63" length="23.68" shape="2442.30,497.54 2448.06,496.32 2453.60,493.09 2457.57,488.53 2458.60,483.30"/>
    </edge>
    <edge id=":simpang_gramedia_12" function="internal">
        <lane id=":simpang_gramedia_12_0" index="0" disallow="tram rail_urban rail rail_electric rail_fast ship" speed="6.31" length="9.16" shape="2447.19,485.20 2447.13,487.80 2446.26,489.66 2444.58,490.77 2442.11,491.14"/>
    </edge>
    <edge id=":simpang_gramedia_13" function="internal">
        <lane id=":simpang_gramedia_13_0" index="0" disallow="tram rail_urban rail rail_electric rail_fast ship" speed="27.78" length="20.25" shape="2447.19,485.20 2449.92,505.27"/>
    </edge>
    <edge id=":simpang_gramedia_14" function="internal">
        <lane id=":simpang_gramedia_14_0" index="0" disallow="tram rail_urban rail rail_electric rail_fast ship" speed="7.85" length="14.81" shape="2450.35,484.68 2450.25,488.91 2448.86,491.93 2446.18,493.74 2442.20,494.34"/>
    </edge>
    <edge id=":simpang_gramedia_15" function="internal">
        <lane id=":simpang_gramedia_15_0" index="0" disallow="tram rail_urban rail rail_electric rail_fast ship" speed="27.78" length="20.25" shape="2450.35,484.68 2453.08,504.75"/>
    </edge>

    <edge id="jlcikditiro_barat_1" from="simpang_gramedia" to="1903473363" name="Jalan Cik di Tiro" priority="12" type="highway.primary" spreadType="center" shape="2449.97,495.73 2453.58,517.65">
        <lane id="jlcikditiro_barat_1_0" index="0" disallow="tram rail_urban rail rail_electric rail_fast ship" speed="27.78" length="0.20" shape="2449.92,505.27 2449.95,505.46">
            <param key="origId" value="153821715"/>
        </lane>
        <lane id="jlcikditiro_barat_1_1" index="1" disallow="tram rail_urban rail rail_electric rail_fast ship" speed="27.78" length="0.20" shape="2453.08,504.75 2453.11,504.94">
            <param key="origId" value="153821715"/>
        </lane>
        <param key="origFrom" value="271845942"/>
    </edge>
    <edge id="jlcikditiro_barat_2" from="1903473363" to="1664585369" name="Jalan Cik di Tiro" priority="12" type="highway.primary" spreadType="center" shape="2453.58,517.65 2468.69,609.44 2470.51,620.44 2472.08,630.02 2477.34,661.93 2480.54,681.40 2482.42,692.80 2487.64,724.56 2492.74,756.87 2496.33,779.67 2499.82,801.84 2501.03,809.48 2503.40,825.12 2508.49,856.79 2543.03,1075.90 2546.92,1100.55 2561.24,1191.42 2569.23,1242.05">
        <lane id="jlcikditiro_barat_2_0" index="0" disallow="tram rail_urban rail rail_electric rail_fast ship" speed="27.78" length="732.85" shape="2452.12,518.63 2467.11,609.70 2468.93,620.70 2470.50,630.28 2475.76,662.19 2478.96,681.66 2480.84,693.06 2486.06,724.81 2491.16,757.12 2494.75,779.92 2498.24,802.09 2499.45,809.73 2501.82,825.37 2506.91,857.04 2541.45,1076.15 2545.34,1100.80 2559.66,1191.67 2567.65,1242.30">
            <param key="origId" value="153821715 1001303582"/>
        </lane>
        <lane id="jlcikditiro_barat_2_1" index="1" disallow="tram rail_urban rail rail_electric rail_fast ship" speed="27.78" length="732.85" shape="2455.28,518.11 2470.27,609.18 2472.09,620.18 2473.66,629.76 2478.92,661.67 2482.12,681.14 2484.00,692.54 2489.22,724.31 2494.32,756.62 2497.91,779.42 2501.40,801.59 2502.61,809.23 2504.98,824.87 2510.07,856.54 2544.61,1075.65 2548.50,1100.30 2562.82,1191.17 2570.81,1241.80">
            <param key="origId" value="153821715 1001303582"/>
        </lane>
    </edge>
    <edge id="jlcikditiro_timur_1" from="7265447247" to="simpang_gramedia" name="Jalan Cik di Tiro" priority="12" type="highway.primary" spreadType="center" shape="2578.35,1241.41 2570.24,1190.27 2569.37,1184.43 2565.73,1161.74 2555.66,1098.15 2551.92,1074.56 2548.34,1051.94 2517.72,857.05 2501.43,755.79 2496.14,722.42 2482.18,628.95 2480.71,619.09 2479.08,608.19 2468.38,536.53 2465.08,514.39 2462.21,495.21">
        <lane id="jlcikditiro_timur_1_0" index="0" disallow="tram rail_urban rail rail_electric rail_fast ship" speed="27.78" length="745.88" shape="2579.93,1241.16 2571.82,1190.02 2570.95,1184.19 2567.31,1161.49 2557.24,1097.90 2553.50,1074.31 2549.92,1051.69 2519.30,856.80 2503.01,755.54 2497.72,722.18 2483.76,628.71 2482.29,618.85 2480.66,607.95 2469.96,536.29 2466.66,514.15 2465.17,504.16">
            <param key="origId" value="131708764 1001303581 1001303581"/>
        </lane>
        <lane id="jlcikditiro_timur_1_1" index="1" disallow="tram rail_urban rail rail_electric rail_fast ship" speed="27.78" length="745.88" shape="2576.77,1241.66 2568.66,1190.52 2567.79,1184.67 2564.15,1161.99 2554.08,1098.40 2550.34,1074.81 2546.76,1052.19 2516.14,857.30 2499.85,756.04 2494.56,722.66 2480.60,629.19 2479.13,619.33 2477.50,608.43 2466.80,536.77 2463.50,514.63 2462.01,504.68">
            <param key="origId" value="131708764 1001303581 1001303581"/>
        </lane>
        <param key="origTo" value="1664585451"/>
    </edge>
    <edge id="jljendsudirman_satuarah_1" from="269401983" to="1903473308" name="Jalan Jenderal Sudirman" priority="12" type="highway.primary" spreadType="center" shape="3376.96,491.56 2863.80,493.97 2857.64,493.99 2848.99,494.01 2827.12,494.07 2778.09,494.21 2774.48,494.21 2734.71,494.32 2679.69,494.47 2603.69,494.68 2583.88,494.73 2546.17,494.84 2520.74,494.90 2497.79,494.97">
        <lane id="jljendsudirman_satuarah_1_0" index="0" disallow="tram rail_urban rail rail_electric rail_fast ship" speed="27.78" length="881.43" shape="3376.94,488.36 2863.79,490.77 2857.63,490.79 2848.98,490.81 2827.11,490.87 2778.08,491.01 2774.48,491.01 2734.70,491.12 2679.68,491.27 2603.68,491.48 2583.87,491.53 2546.16,491.64 2520.73,491.70 2495.53,491.78">
            <param key="origId" value="141318123"/>
        </lane>
        <lane id="jljendsudirman_satuarah_1_1" index="1" disallow="tram rail_urban rail rail_electric rail_fast ship" speed="27.78" length="881.43" shape="3376.96,491.56 2863.80,493.97 2857.64,493.99 2848.99,494.01 2827.12,494.07 2778.09,494.21 2774.48,494.21 2734.71,494.32 2679.69,494.47 2603.69,494.68 2583.88,494.73 2546.17,494.84 2520.74,494.90 2495.54,494.98">
            <param key="origId" value="141318123"/>
        </lane>
        <lane id="jljendsudirman_satuarah_1_2" index="2" disallow="tram rail_urban rail rail_electric rail_fast ship" speed="27.78" length="881.43" shape="3376.98,494.76 2863.81,497.17 2857.65,497.19 2849.00,497.21 2827.13,497.27 2778.10,497.41 2774.48,497.41 2734.72,497.52 2679.70,497.67 2603.70,497.88 2583.89,497.93 2546.18,498.04 2520.75,498.10 2495.55,498.18">
            <param key="origId" value="141318123"/>
        </lane>
    </edge>
    <edge id="jljendsudirman_satuarah_2" from="1903473308" to="simpang_gramedia" name="Jalan Jenderal Sudirman" priority="12" type="highway.primary" spreadType="center" shape="2497.79,494.97 2473.06,495.02 2462.21,495.21">
        <lane id="jljendsudirman_satuarah_2_0" index="0" disallow="tram rail_urban rail rail_electric rail_fast ship" speed="27.78" length="16.84" shape="2486.90,491.79 2473.03,491.82 2470.01,491.87">
            <param key="origId" value="358464188"/>
        </lane>
        <lane id="jljendsudirman_satuarah_2_1" index="1" disallow="tram rail_urban rail rail_electric rail_fast ship" speed="27.78" length="16.84" shape="2486.91,494.99 2473.06,495.02 2470.07,495.07">
            <param key="origId" value="358464188"/>
        </lane>
        <lane id="jljendsudirman_satuarah_2_2" index="2" disallow="tram rail_urban rail rail_electric rail_fast ship" speed="27.78" length="16.84" shape="2486.92,498.19 2473.09,498.22 2470.13,498.27">
            <param key="origId" value="358464188"/>
        </lane>
        <param key="origTo" value="1664585451"/>
    </edge>
    <edge id="jljendsudirman_satuarah_belokan" from="1903473308" to="1903473341" priority="7" type="highway.primary_link" spreadType="center" shape="2497.79,494.97 2489.99,489.18 2487.01,487.74 2484.28,486.81 2475.26,485.76 2472.12,485.18 2469.84,484.33 2466.10,482.14 2463.54,480.71 2464.01,476.80">
        <lane id="jljendsudirman_satuarah_belokan_0" index="0" disallow="tram rail_urban rail rail_electric rail_fast ship" speed="22.22" length="27.41" shape="2488.02,488.23 2487.01,487.74 2484.28,486.81 2475.26,485.76 2472.12,485.18 2469.84,484.33 2466.10,482.14 2463.54,480.71 2463.71,479.28">
            <param key="origId" value="179907375"/>
        </lane>
    </edge>
    <edge id="jljendsudirman_selatan_1" from="simpang_gramedia" to="1903473346" name="Jalan Jenderal Sudirman" priority="12" type="highway.primary" shape="2449.97,495.73 2445.28,495.87 2443.26,495.94 2416.98,495.92">