<?xml version="1.0" encoding="UTF-8"?>

<!-- generated on 2023-02-18 15:12:17 by Eclipse SUMO netedit Version 1.15.0
<configuration xmlns:xsi="http://www.w3.org/2001/XMLSchema-instance" xsi:noNamespaceSchemaLocation="http://sumo.dlr.de/xsd/netconvertConfiguration.xsd">

    <input>
        <sumo-net-file value="/opt/homebrew/Cellar/sumo/1.15.0/share/sumo/tools/jogja_traffic/osm.net.xml"/>
    </input>

    <output>
        <output-file value="/opt/homebrew/Cellar/sumo/1.15.0/share/sumo/tools/jogja_traffic/osm.net.xml"/>
        <output.street-names value="true"/>
    </output>

    <processing>
        <geometry.min-radius.fix.railways value="false"/>
        <geometry.max-grade.fix value="false"/>
        <offset.disable-normalization value="true"/>
        <lefthand value="1"/>
    </processing>

    <junctions>
        <no-turnarounds value="true"/>
        <junctions.corner-detail value="5"/>
        <junctions.limit-turn-speed value="5.50"/>
        <rectangular-lane-cut value="0"/>
    </junctions>

    <pedestrian>
        <walkingareas value="0"/>
    </pedestrian>

</configuration>
-->

<net version="1.9" junctionCornerDetail="5" lefthand="true" limitTurnSpeed="5.50" xmlns:xsi="http://www.w3.org/2001/XMLSchema-instance" xsi:noNamespaceSchemaLocation="http://sumo.dlr.de/xsd/net_file.xsd">

    <location netOffset="-428629.16,860853.54" convBoundary="0.00,0.00,2928.51,1242.05" origBoundary="110.352700,-7.787449,110.379257,-7.775406" projParameter="+proj=utm +zone=49 +ellps=WGS84 +datum=WGS84 +units=m +no_defs"/>

    <type id="highway.bridleway" priority="1" numLanes="1" speed="2.78" allow="pedestrian" oneway="1" width="2.00"/>
    <type id="highway.bus_guideway" priority="1" numLanes="1" speed="27.78" allow="bus" oneway="1"/>
    <type id="highway.cycleway" priority="1" numLanes="1" speed="5.56" allow="bicycle" oneway="0" width="1.00"/>
    <type id="highway.footway" priority="1" numLanes="1" speed="2.78" allow="pedestrian" oneway="1" width="2.00"/>
    <type id="highway.ford" priority="1" numLanes="1" speed="2.78" allow="army" oneway="0"/>
    <type id="highway.living_street" priority="2" numLanes="1" speed="2.78" disallow="tram rail_urban rail rail_electric rail_fast ship" oneway="0"/>
    <type id="highway.motorway" priority="14" numLanes="2" speed="39.44" allow="private emergency authority army vip passenger hov taxi bus coach delivery truck trailer motorcycle evehicle custom1 custom2" oneway="1"/>
    <type id="highway.motorway_link" priority="9" numLanes="1" speed="22.22" allow="private emergency authority army vip passenger hov taxi bus coach delivery truck trailer motorcycle evehicle custom1 custom2" oneway="1"/>
    <type id="highway.path" priority="1" numLanes="1" speed="5.56" allow="pedestrian bicycle" oneway="0" width="2.00"/>
    <type id="highway.pedestrian" priority="1" numLanes="1" speed="2.78" allow="pedestrian" oneway="1" width="2.00"/>
    <type id="highway.primary" priority="12" numLanes="2" speed="27.78" disallow="tram rail_urban rail rail_electric rail_fast ship" oneway="0"/>
    <type id="highway.primary_link" priority="7" numLanes="1" speed="22.22" disallow="tram rail_urban rail rail_electric rail_fast ship" oneway="0"/>
    <type id="highway.raceway" priority="15" numLanes="2" speed="83.33" allow="vip" oneway="0"/>
    <type id="highway.residential" priority="3" numLanes="1" speed="13.89" disallow="tram rail_urban rail rail_electric rail_fast ship" oneway="0"/>
    <type id="highway.secondary" priority="11" numLanes="1" speed="27.78" disallow="tram rail_urban rail rail_electric rail_fast ship" oneway="0"/>
    <type id="highway.secondary_link" priority="6" numLanes="1" speed="22.22" disallow="tram rail_urban rail rail_electric rail_fast ship" oneway="0"/>
    <type id="highway.service" priority="1" numLanes="1" speed="5.56" allow="pedestrian delivery bicycle" oneway="0"/>
    <type id="highway.stairs" priority="1" numLanes="1" speed="1.39" allow="pedestrian" oneway="1" width="2.00"/>
    <type id="highway.step" priority="1" numLanes="1" speed="1.39" allow="pedestrian" oneway="1" width="2.00"/>
    <type id="highway.steps" priority="1" numLanes="1" speed="1.39" allow="pedestrian" oneway="1" width="2.00"/>
    <type id="highway.tertiary" priority="10" numLanes="1" speed="22.22" disallow="tram rail_urban rail rail_electric rail_fast ship" oneway="0"/>
    <type id="highway.tertiary_link" priority="5" numLanes="1" speed="22.22" disallow="tram rail_urban rail rail_electric rail_fast ship" oneway="0"/>
    <type id="highway.track" priority="1" numLanes="1" speed="5.56" allow="pedestrian motorcycle moped bicycle" oneway="0"/>
    <type id="highway.trunk" priority="13" numLanes="2" speed="27.78" disallow="pedestrian bicycle tram rail_urban rail rail_electric rail_fast ship" oneway="0"/>
    <type id="highway.trunk_link" priority="8" numLanes="1" speed="22.22" disallow="pedestrian bicycle tram rail_urban rail rail_electric rail_fast ship" oneway="0"/>
    <type id="highway.unclassified" priority="4" numLanes="1" speed="13.89" disallow="tram rail_urban rail rail_electric rail_fast ship" oneway="0"/>
    <type id="highway.unsurfaced" priority="1" numLanes="1" speed="8.33" disallow="tram rail_urban rail rail_electric rail_fast ship" oneway="0"/>
    <type id="railway.highspeed" priority="21" numLanes="1" speed="69.44" allow="rail_fast" oneway="1"/>
    <type id="railway.light_rail" priority="19" numLanes="1" speed="27.78" allow="rail_urban" oneway="1"/>
    <type id="railway.preserved" priority="16" numLanes="1" speed="27.78" allow="rail" oneway="1"/>
    <type id="railway.rail" priority="20" numLanes="1" speed="44.44" allow="rail" oneway="1"/>
    <type id="railway.subway" priority="18" numLanes="1" speed="27.78" allow="rail_urban" oneway="1"/>
    <type id="railway.tram" priority="17" numLanes="1" speed="13.89" allow="tram" oneway="1"/>

    <edge id=":1001305074#1-AddedOnRampNode_0" function="internal">
        <lane id=":1001305074#1-AddedOnRampNode_0_0" index="0" disallow="tram rail_urban rail rail_electric rail_fast ship" speed="27.78" length="8.00" shape="2445.63,382.52 2444.37,374.62"/>
        <lane id=":1001305074#1-AddedOnRampNode_0_1" index="1" disallow="tram rail_urban rail rail_electric rail_fast ship" speed="27.78" length="8.00" shape="2442.47,383.03 2441.21,375.13"/>
    </edge>
    <edge id=":10041419192_0" function="internal">
        <lane id=":10041419192_0_0" index="0" disallow="tram rail_urban rail rail_electric rail_fast ship" speed="11.11" length="17.67" shape="1590.70,536.62 1589.15,531.67 1587.03,528.11 1585.99,524.85 1587.68,520.76"/>
        <lane id=":10041419192_0_1" index="1" disallow="tram rail_urban rail rail_electric rail_fast ship" speed="11.11" length="17.67" shape="1590.70,536.62 1588.81,531.44 1585.96,527.96 1584.05,524.66 1584.97,519.98"/>
        <lane id=":10041419192_0_2" index="2" disallow="tram rail_urban rail rail_electric rail_fast ship" speed="11.11" length="17.67" shape="1587.52,537.00 1586.46,531.97 1585.42,528.30 1585.48,524.91 1587.68,520.76"/>
        <lane id=":10041419192_0_3" index="3" disallow="tram rail_urban rail rail_electric rail_fast ship" speed="11.11" length="17.67" shape="1587.52,537.00 1586.15,531.81 1584.41,528.16 1583.59,524.67 1584.97,519.98"/>
    </edge>
    <edge id=":10041419192_4" function="internal">
        <lane id=":10041419192_4_0" index="0" disallow="tram rail_urban rail rail_electric rail_fast ship" speed="11.11" length="16.76" shape="1578.86,521.68 1580.18,526.30 1580.63,529.58 1580.76,532.92 1581.16,537.75"/>
        <lane id=":10041419192_4_1" index="1" disallow="tram rail_urban rail rail_electric rail_fast ship" speed="11.11" length="16.76" shape="1581.82,520.42 1583.22,525.30 1583.72,528.75 1583.91,532.28 1584.34,537.37"/>
    </edge>
    <edge id=":10041419192_6" function="internal">
        <lane id=":10041419192_6_0" index="0" disallow="tram rail_urban rail rail_electric rail_fast ship" speed="4.20" length="5.04" shape="1581.82,520.42 1582.45,521.70 1583.19,522.05 1584.03,521.48 1584.97,519.98"/>
    </edge>
    <edge id=":10278525282_0" function="internal">
        <lane id=":10278525282_0_0" index="0" disallow="tram rail_urban rail rail_electric rail_fast ship" speed="11.11" length="9.40" shape="1560.29,287.51 1559.11,278.18"/>
        <lane id=":10278525282_0_1" index="1" disallow="tram rail_urban rail rail_electric rail_fast ship" speed="11.11" length="9.40" shape="1557.12,287.91 1555.93,278.58"/>
    </edge>
    <edge id=":10278525282_2" function="internal">
        <lane id=":10278525282_2_0" index="0" disallow="tram rail_urban rail rail_electric rail_fast ship" speed="6.05" length="7.85" shape="1557.12,287.91 1556.57,285.19 1555.71,283.31 1554.56,282.29 1553.10,282.13"/>
    </edge>
    <edge id=":10278525282_3" function="internal">
        <lane id=":10278525282_3_0" index="0" disallow="tram rail_urban rail rail_electric rail_fast ship" speed="6.17" length="7.81" shape="1553.61,285.28 1554.92,284.68 1555.75,283.36 1556.08,281.33 1555.93,278.58"/>
    </edge>
    <edge id=":10278525282_4" function="internal">
        <lane id=":10278525282_4_0" index="0" disallow="tram rail_urban rail rail_electric rail_fast ship" speed="3.65" length="4.67" shape="1553.61,285.28 1554.67,284.30 1554.93,283.45 1554.41,282.72 1553.10,282.13"/>
    </edge>
    <edge id=":1262692922_0" function="internal">
        <lane id=":1262692922_0_0" index="0" disallow="tram rail_urban rail rail_electric rail_fast ship" speed="27.78" length="8.15" shape="2048.18,506.40 2050.59,506.64 2052.21,507.16 2053.83,507.67 2056.24,507.83"/>
        <lane id=":1262692922_0_1" index="1" disallow="tram rail_urban rail rail_electric rail_fast ship" speed="27.78" length="8.15" shape="2048.17,503.20 2050.55,503.44 2052.15,503.96 2053.74,504.47 2056.12,504.63"/>
        <lane id=":1262692922_0_2" index="2" disallow="tram rail_urban rail rail_electric rail_fast ship" speed="27.78" length="8.15" shape="2048.17,503.20 2050.52,502.94 2052.09,502.37 2053.65,501.77 2056.00,501.44"/>
    </edge>
    <edge id=":1664896772_0" function="internal">
        <lane id=":1664896772_0_0" index="0" disallow="tram rail_urban rail rail_electric rail_fast ship" speed="19.45" length="10.78" shape="1515.05,499.20 1511.46,498.30 1509.13,496.34 1506.87,494.76 1503.49,494.99"/>
        <lane id=":1664896772_0_1" index="1" disallow="tram rail_urban rail rail_electric rail_fast ship" speed="19.45" length="10.78" shape="1515.12,502.40 1511.83,501.48 1509.73,499.50 1507.71,497.86 1504.61,497.99"/>
        <lane id=":1664896772_0_2" index="2" disallow="tram rail_urban rail rail_electric rail_fast ship" speed="19.45" length="10.78" shape="1515.12,502.40 1512.28,501.99 1510.32,501.11 1508.41,500.52 1505.73,500.99"/>
        <lane id=":1664896772_0_3" index="3" disallow="tram rail_urban rail rail_electric rail_fast ship" speed="19.45" length="10.78" shape="1515.12,502.40 1512.61,502.48 1510.89,502.68 1509.22,503.13 1506.85,503.99"/>
    </edge>
    <edge id=":1664896774_0" function="internal">
        <lane id=":1664896774_0_0" index="0" disallow="tram rail_urban rail rail_electric rail_fast ship" speed="17.48" length="9.93" shape="1735.22,496.54 1732.68,496.53 1730.93,496.34 1729.25,495.84 1726.90,494.85"/>
        <lane id=":1664896774_0_1" index="1" disallow="tram rail_urban rail rail_electric rail_fast ship" speed="18.78" length="9.93" shape="1735.25,499.74 1732.31,499.73 1730.29,499.51 1728.34,498.92 1725.63,497.79"/>
        <lane id=":1664896774_0_2" index="2" disallow="tram rail_urban rail rail_electric rail_fast ship" speed="19.93" length="9.93" shape="1735.25,499.74 1731.95,500.22 1729.64,501.07 1727.41,501.50 1724.36,500.73"/>
    </edge>
    <edge id=":1664896774_3" function="internal">
        <lane id=":1664896774_3_0" index="0" disallow="tram rail_urban rail rail_electric rail_fast ship" speed="3.65" length="1.44" shape="1735.25,499.74 1734.06,500.55"/>
    </edge>
    <edge id=":1664896774_9" function="internal">
        <lane id=":1664896774_9_0" index="0" disallow="tram rail_urban rail rail_electric rail_fast ship" speed="3.65" length="3.23" shape="1734.06,500.55 1733.67,501.35 1734.08,502.15 1735.29,502.94"/>
    </edge>
    <edge id=":1664896774_4" function="internal">
        <lane id=":1664896774_4_0" index="0" disallow="tram rail_urban rail rail_electric rail_fast ship" speed="27.78" length="9.45" shape="1726.52,507.30 1729.08,506.63 1730.86,506.29 1732.67,506.17 1735.32,506.14"/>
        <lane id=":1664896774_4_1" index="1" disallow="tram rail_urban rail rail_electric rail_fast ship" speed="27.78" length="9.45" shape="1726.52,507.30 1729.20,506.08 1730.84,504.65 1732.52,503.46 1735.29,502.94"/>
    </edge>
    <edge id=":1664896774_6" function="internal">
        <lane id=":1664896774_6_0" index="0" disallow="tram rail_urban rail rail_electric rail_fast ship" speed="5.75" length="1.25" shape="1725.68,504.21 1726.84,503.76"/>
        <lane id=":1664896774_6_1" index="1" disallow="tram rail_urban rail rail_electric rail_fast ship" speed="27.78" length="0.78" shape="1724.83,501.13 1724.92,501.05 1724.81,500.94 1724.59,500.83 1724.36,500.73"/>
        <lane id=":1664896774_6_2" index="2" disallow="tram rail_urban rail rail_electric rail_fast ship" speed="4.31" length="4.20" shape="1723.98,498.04 1723.32,502.20"/>
    </edge>
    <edge id=":1664896774_10" function="internal">
        <lane id=":1664896774_10_0" index="0" disallow="tram rail_urban rail rail_electric rail_fast ship" speed="5.75" length="10.22" shape="1726.84,503.76 1729.06,502.88 1730.18,501.37 1729.04,499.67 1725.63,497.79"/>
    </edge>
    <edge id=":1664896774_11" function="internal">
        <lane id=":1664896774_11_0" index="0" disallow="tram rail_urban rail rail_electric rail_fast ship" speed="4.31" length="1.48" shape="1723.32,502.20 1723.08,503.66"/>
    </edge>
    <edge id=":1903473308_0" function="internal">
        <lane id=":1903473308_0_0" index="0" disallow="tram rail_urban rail rail_electric rail_fast ship" speed="15.76" length="8.49" shape="2495.53,491.78 2493.13,491.48 2491.62,490.68 2490.19,489.55 2488.02,488.23"/>
    </edge>
    <edge id=":1903473308_1" function="internal">
        <lane id=":1903473308_1_0" index="0" disallow="tram rail_urban rail rail_electric rail_fast ship" speed="27.78" length="8.63" shape="2495.53,491.78 2486.90,491.79"/>
        <lane id=":1903473308_1_1" index="1" disallow="tram rail_urban rail rail_electric rail_fast ship" speed="27.78" length="8.63" shape="2495.54,494.98 2486.91,494.99"/>
        <lane id=":1903473308_1_2" index="2" disallow="tram rail_urban rail rail_electric rail_fast ship" speed="27.78" length="8.63" shape="2495.55,498.18 2486.92,498.19"/>
    </edge>
    <edge id=":1903473313_0" function="internal">
        <lane id=":1903473313_0_0" index="0" disallow="tram rail_urban rail rail_electric rail_fast ship" speed="27.78" length="8.20" shape="2070.80,493.74 2068.39,493.53 2066.78,493.02 2065.16,492.50 2062.76,492.32"/>
        <lane id=":1903473313_0_1" index="1" disallow="tram rail_urban rail rail_electric rail_fast ship" speed="27.78" length="8.20" shape="2070.85,496.94 2068.46,496.73 2066.85,496.21 2065.24,495.70 2062.85,495.52"/>
    </edge>
    <edge id=":1903473320_0" function="internal">
        <lane id=":1903473320_0_0" index="0" disallow="tram rail_urban rail rail_electric rail_fast ship" speed="7.60" length="7.39" shape="1564.75,508.71 1567.01,508.87 1568.85,509.37 1570.29,510.20 1571.32,511.37"/>
        <lane id=":1903473320_0_1" index="1" disallow="tram rail_urban rail rail_electric rail_fast ship" speed="8.52" length="9.43" shape="1564.75,508.71 1568.58,508.76 1571.41,508.94 1573.23,509.25 1574.04,509.69"/>
        <lane id=":1903473320_0_2" index="2" disallow="tram rail_urban rail rail_electric rail_fast ship" speed="9.02" length="10.66" shape="1564.74,505.51 1567.84,505.76 1570.42,506.54 1572.49,507.85 1574.04,509.69"/>
    </edge>
    <edge id=":1903473320_3" function="internal">
        <lane id=":1903473320_3_0" index="0" disallow="tram rail_urban rail rail_electric rail_fast ship" speed="14.61" length="6.04" shape="1568.74,505.25 1569.06,507.20 1569.52,508.49 1570.23,509.68 1571.32,511.37"/>
        <lane id=":1903473320_3_1" index="1" disallow="tram rail_urban rail rail_electric rail_fast ship" speed="13.03" length="6.04" shape="1571.92,504.89 1572.18,506.42 1572.58,507.43 1573.17,508.36 1574.04,509.69"/>
    </edge>
    <edge id=":1903473340_0" function="internal">
        <lane id=":1903473340_0_0" index="0" disallow="tram rail_urban rail rail_electric rail_fast ship" speed="25.00" length="2.96" shape="2440.71,461.01 2441.09,463.95"/>
    </edge>
    <edge id=":1903473340_1" function="internal">
        <lane id=":1903473340_1_0" index="0" disallow="tram rail_urban rail rail_electric rail_fast ship" speed="27.78" length="3.02" shape="2443.89,460.59 2444.29,463.56"/>
        <lane id=":1903473340_1_1" index="1" disallow="tram rail_urban rail rail_electric rail_fast ship" speed="27.78" length="3.02" shape="2447.06,460.17 2447.47,463.18"/>
    </edge>
    <edge id=":1903473341_0" function="internal">
        <lane id=":1903473341_0_0" index="0" disallow="tram rail_urban rail rail_electric rail_fast ship" speed="27.78" length="3.02" shape="2461.25,479.72 2460.76,476.78"/>
        <lane id=":1903473341_0_1" index="1" disallow="tram rail_urban rail rail_electric rail_fast ship" speed="27.78" length="3.02" shape="2458.10,480.28 2457.60,477.28"/>
    </edge>
    <edge id=":1903473341_2" function="internal">
        <lane id=":1903473341_2_0" index="0" disallow="tram rail_urban rail rail_electric rail_fast ship" speed="25.00" length="3.04" shape="2463.71,479.28 2463.85,478.39 2463.98,477.77 2464.02,477.16 2463.92,476.27"/>
    </edge>
    <edge id=":1903473346_0" function="internal">
        <lane id=":1903473346_0_0" index="0" disallow="tram rail_urban rail rail_electric rail_fast ship" speed="10.55" length="15.25" shape="2437.15,486.96 2435.40,488.75 2432.45,490.03 2428.32,490.81 2423.00,491.09"/>
    </edge>
    <edge id=":1903473346_1" function="internal">
        <lane id=":1903473346_1_0" index="0" disallow="tram rail_urban rail rail_electric rail_fast ship" speed="27.78" length="15.17" shape="2438.18,491.14 2423.00,491.09"/>
        <lane id=":1903473346_1_1" index="1" disallow="tram rail_urban rail rail_electric rail_fast ship" speed="27.78" length="15.17" shape="2438.18,494.34 2423.02,494.29"/>
    </edge>
    <edge id=":1903473346_3" function="internal">
        <lane id=":1903473346_3_0" index="0" disallow="tram rail_urban rail rail_electric rail_fast ship" speed="3.65" length="1.44" shape="2438.18,494.34 2436.98,495.14"/>
    </edge>
    <edge id=":1903473346_8" function="internal">
        <lane id=":1903473346_8_0" index="0" disallow="tram rail_urban rail rail_electric rail_fast ship" speed="3.65" length="3.23" shape="2436.98,495.14 2436.58,495.93 2436.98,496.74 2438.18,497.54"/>
    </edge>
    <edge id=":1903473346_4" function="internal">
        <lane id=":1903473346_4_0" index="0" disallow="tram rail_urban rail rail_electric rail_fast ship" speed="25.00" length="11.53" shape="2423.05,500.69 2426.47,501.04 2428.81,501.92 2430.98,503.06 2433.92,504.15"/>
    </edge>
    <edge id=":1903473346_5" function="internal">
        <lane id=":1903473346_5_0" index="0" disallow="tram rail_urban rail rail_electric rail_fast ship" speed="27.78" length="15.13" shape="2423.05,500.69 2438.17,500.74"/>
        <lane id=":1903473346_5_1" index="1" disallow="tram rail_urban rail rail_electric rail_fast ship" speed="27.78" length="15.13" shape="2423.03,497.49 2438.18,497.54"/>
    </edge>
    <edge id=":1903473346_7" function="internal">
        <lane id=":1903473346_7_0" index="0" disallow="tram rail_urban rail rail_electric rail_fast ship" speed="3.65" length="1.44" shape="2423.03,497.49 2424.23,496.68"/>
    </edge>
    <edge id=":1903473346_9" function="internal">
        <lane id=":1903473346_9_0" index="0" disallow="tram rail_urban rail rail_electric rail_fast ship" speed="3.65" length="3.23" shape="2424.23,496.68 2424.62,495.88 2424.22,495.08 2423.02,494.29"/>
    </edge>
    <edge id=":1903473351_0" function="internal">
        <lane id=":1903473351_0_0" index="0" disallow="tram rail_urban rail rail_electric rail_fast ship" speed="27.78" length="8.80" shape="1561.41,501.37 1558.94,500.92 1557.38,499.85 1555.82,498.79 1553.34,498.35"/>
        <lane id=":1903473351_0_1" index="1" disallow="tram rail_urban rail rail_electric rail_fast ship" speed="27.78" length="8.80" shape="1561.48,504.56 1559.01,504.12 1557.45,503.05 1555.89,501.99 1553.42,501.54"/>
    </edge>
    <edge id=":1903473360_0" function="internal">
        <lane id=":1903473360_0_0" index="0" disallow="tram rail_urban rail rail_electric rail_fast ship" speed="27.78" length="12.64" shape="1969.36,493.97 1965.75,494.42 1963.26,494.49 1960.76,494.40 1957.11,494.35"/>
        <lane id=":1903473360_0_1" index="1" disallow="tram rail_urban rail rail_electric rail_fast ship" speed="27.78" length="12.64" shape="1970.13,497.08 1966.31,497.57 1963.67,497.67 1961.01,497.59 1957.15,497.55"/>
    </edge>
    <edge id=":1903473360_2" function="internal">
        <lane id=":1903473360_2_0" index="0" disallow="tram rail_urban rail rail_electric rail_fast ship" speed="27.78" length="5.38" shape="1957.22,503.95 1958.56,504.04 1959.45,504.30 1960.34,504.64 1961.65,505.01"/>
        <lane id=":1903473360_2_1" index="1" disallow="tram rail_urban rail rail_electric rail_fast ship" speed="27.78" length="5.38" shape="1957.18,500.75 1958.99,500.85 1960.20,501.16 1961.40,501.59 1963.17,502.07"/>
    </edge>
    <edge id=":1903473360_4" function="internal">
        <lane id=":1903473360_4_0" index="0" disallow="tram rail_urban rail rail_electric rail_fast ship" speed="3.65" length="1.44" shape="1957.18,500.75 1958.37,499.94"/>
    </edge>
    <edge id=":1903473360_5" function="internal">
        <lane id=":1903473360_5_0" index="0" disallow="tram rail_urban rail rail_electric rail_fast ship" speed="3.65" length="3.23" shape="1958.37,499.94 1958.76,499.13 1958.36,498.34 1957.15,497.55"/>
    </edge>
    <edge id=":1903473363_0" function="internal">
        <lane id=":1903473363_0_0" index="0" disallow="tram rail_urban rail rail_electric rail_fast ship" speed="10.76" length="14.76" shape="2444.24,506.87 2447.14,508.67 2449.42,511.23 2451.08,514.55 2452.12,518.63"/>
    </edge>
    <edge id=":1903473363_1" function="internal">
        <lane id=":1903473363_1_0" index="0" disallow="tram rail_urban rail rail_electric rail_fast ship" speed="27.78" length="13.34" shape="2449.95,505.46 2452.12,518.63"/>
        <lane id=":1903473363_1_1" index="1" disallow="tram rail_urban rail rail_electric rail_fast ship" speed="27.78" length="13.34" shape="2453.11,504.94 2455.28,518.11"/>
    </edge>
    <edge id=":1903473364_0" function="internal">
        <lane id=":1903473364_0_0" index="0" disallow="tram rail_urban rail rail_electric rail_fast ship" speed="9.89" length="8.97" shape="1571.99,491.29 1570.24,492.84 1568.33,493.96 1566.26,494.65 1564.03,494.91"/>
        <lane id=":1903473364_0_1" index="1" disallow="tram rail_urban rail rail_electric rail_fast ship" speed="10.66" length="10.50" shape="1571.99,491.29 1569.08,494.26 1566.79,496.39 1565.13,497.67 1564.10,498.11"/>
        <lane id=":1903473364_0_2" index="2" disallow="tram rail_urban rail rail_electric rail_fast ship" speed="11.81" length="12.98" shape="1571.99,491.29 1567.92,495.69 1565.26,498.82 1564.01,500.69 1564.16,501.31"/>
        <lane id=":1903473364_0_3" index="3" disallow="tram rail_urban rail rail_electric rail_fast ship" speed="12.80" length="15.32" shape="1571.99,491.29 1564.23,504.51"/>
    </edge>
    <edge id=":1903473364_4" function="internal">
        <lane id=":1903473364_4_0" index="0" disallow="tram rail_urban rail rail_electric rail_fast ship" speed="11.65" length="13.89" shape="1571.99,491.29 1570.17,493.85 1569.01,497.00 1568.53,500.73 1568.72,505.05"/>
        <lane id=":1903473364_4_1" index="1" disallow="tram rail_urban rail rail_electric rail_fast ship" speed="11.11" length="13.89" shape="1575.36,492.38 1573.52,494.87 1572.33,497.75 1571.79,501.02 1571.90,504.69"/>
    </edge>
    <edge id=":275864990_0" function="internal">
        <lane id=":275864990_0_0" index="0" disallow="pedestrian tram rail_urban rail rail_electric rail_fast ship" speed="11.11" length="0.30" shape="574.96,507.47 574.67,507.50"/>
        <lane id=":275864990_0_1" index="1" disallow="pedestrian tram rail_urban rail rail_electric rail_fast ship" speed="11.11" length="0.30" shape="575.32,510.65 575.01,510.69"/>
    </edge>
    <edge id=":3885907857_0" function="internal">
        <lane id=":3885907857_0_0" index="0" disallow="tram rail_urban rail rail_electric rail_fast ship" speed="27.78" length="9.09" shape="2203.55,492.23 2200.81,491.76 2199.02,490.76 2197.23,489.84 2194.51,489.64"/>
        <lane id=":3885907857_0_1" index="1" disallow="tram rail_urban rail rail_electric rail_fast ship" speed="27.78" length="9.09" shape="2203.57,495.43 2200.92,494.96 2199.20,493.95 2197.48,493.03 2194.85,492.82"/>
        <lane id=":3885907857_0_2" index="2" disallow="tram rail_urban rail rail_electric rail_fast ship" speed="27.78" length="9.09" shape="2203.57,495.43 2201.08,495.46 2199.37,495.56 2197.67,495.73 2195.18,496.00"/>
    </edge>
    <edge id=":3885907857_3" function="internal">
        <lane id=":3885907857_3_0" index="0" disallow="tram rail_urban rail rail_electric rail_fast ship" speed="27.78" length="7.95" shape="2195.82,501.97 2203.61,501.83"/>
        <lane id=":3885907857_3_1" index="1" disallow="tram rail_urban rail rail_electric rail_fast ship" speed="27.78" length="7.95" shape="2195.48,498.78 2203.59,498.63"/>
    </edge>
    <edge id=":5634358076_0" function="internal">
        <lane id=":5634358076_0_0" index="0" disallow="tram rail_urban rail rail_electric rail_fast ship" speed="11.11" length="8.44" shape="464.18,536.99 466.59,536.91 468.25,537.66 469.92,538.44 472.36,538.49"/>
        <lane id=":5634358076_0_1" index="1" disallow="tram rail_urban rail rail_electric rail_fast ship" speed="11.11" length="8.44" shape="464.18,536.99 471.76,535.34"/>
        <lane id=":5634358076_0_2" index="2" disallow="tram rail_urban rail rail_electric rail_fast ship" speed="11.11" length="8.44" shape="464.18,536.99 466.42,535.93 467.66,534.51 468.90,533.14 471.17,532.20"/>
        <lane id=":5634358076_0_3" index="3" disallow="tram rail_urban rail rail_electric rail_fast ship" speed="11.11" length="8.44" shape="463.42,533.88 465.71,532.81 466.98,531.38 468.26,530.00 470.58,529.06"/>
    </edge>
    <edge id=":5634425523_0" function="internal">
        <lane id=":5634425523_0_0" index="0" disallow="tram rail_urban rail rail_electric rail_fast ship" speed="11.11" length="8.61" shape="517.26,523.51 519.66,523.56 521.26,524.41 522.87,525.32 525.29,525.57"/>
        <lane id=":5634425523_0_1" index="1" disallow="tram rail_urban rail rail_electric rail_fast ship" speed="11.11" length="8.61" shape="516.67,520.36 519.14,520.41 520.80,521.24 522.47,522.14 524.96,522.38"/>
    </edge>
    <edge id=":5634480388_0" function="internal">
        <lane id=":5634480388_0_0" index="0" disallow="tram rail_urban rail rail_electric rail_fast ship" speed="11.11" length="11.10" shape="768.05,507.53 756.96,507.58"/>
        <lane id=":5634480388_0_1" index="1" disallow="tram rail_urban rail rail_electric rail_fast ship" speed="11.11" length="11.10" shape="768.07,510.73 756.96,510.78"/>
    </edge>
    <edge id=":5634480388_2" function="internal">
        <lane id=":5634480388_2_0" index="0" disallow="pedestrian tram rail_urban rail rail_electric rail_fast ship" speed="5.95" length="7.32" shape="762.55,514.18 762.18,512.69 761.13,511.63 759.39,510.99 756.96,510.78"/>
    </edge>
    <edge id=":5634480389_0" function="internal">
        <lane id=":5634480389_0_0" index="0" disallow="tram rail_urban rail rail_electric rail_fast ship" speed="11.11" length="11.27" shape="756.96,521.03 768.27,520.94"/>
        <lane id=":5634480389_0_1" index="1" disallow="tram rail_urban rail rail_electric rail_fast ship" speed="11.11" length="11.27" shape="756.97,517.83 768.21,517.74"/>
    </edge>
    <edge id=":5634480389_2" function="internal">
        <lane id=":5634480389_2_0" index="0" disallow="pedestrian tram rail_urban rail rail_electric rail_fast ship" speed="5.92" length="7.39" shape="756.97,517.83 759.43,517.62 761.18,516.98 762.22,515.90 762.55,514.38"/>
    </edge>
    <edge id=":5634480395_0" function="internal">
        <lane id=":5634480395_0_0" index="0" disallow="tram rail_urban rail rail_electric rail_fast ship" speed="11.11" length="8.43" shape="1411.05,503.43 1408.57,502.93 1407.01,501.84 1405.45,500.76 1402.97,500.32"/>
        <lane id=":5634480395_0_1" index="1" disallow="tram rail_urban rail rail_electric rail_fast ship" speed="11.11" length="8.43" shape="1411.05,503.43 1403.04,503.52"/>
    </edge>
    <edge id=":5634480395_2" function="internal">
        <lane id=":5634480395_2_0" index="0" disallow="tram rail_urban rail rail_electric rail_fast ship" speed="11.11" length="8.72" shape="1403.18,509.92 1405.61,509.36 1407.11,508.24 1408.62,507.13 1411.05,506.63"/>
    </edge>
    <edge id=":5634480396_0" function="internal">
        <lane id=":5634480396_0_0" index="0" disallow="tram rail_urban rail rail_electric rail_fast ship" speed="19.45" length="8.78" shape="1511.60,507.98 1514.26,508.54 1516.11,508.82 1517.97,508.92 1520.70,508.92"/>
        <lane id=":5634480396_0_1" index="1" disallow="tram rail_urban rail rail_electric rail_fast ship" speed="19.45" length="8.78" shape="1512.28,504.85 1514.71,505.37 1516.40,505.63 1518.10,505.72 1520.59,505.72"/>
    </edge>
    <edge id=":5636328389_0" function="internal">