<?xml version="1.0" encoding="UTF-8"?>

<!-- generated on 2023-02-22 10:23:14 by Eclipse SUMO netedit Version 1.15.0
-->

<routes xmlns:xsi="http://www.w3.org/2001/XMLSchema-instance" xsi:noNamespaceSchemaLocation="http://sumo.dlr.de/xsd/routes_file.xsd">
    <!-- Routes -->
    <route id="route_gramedia_gramediaselatan" edges="jljendsudirman_satuarah_1 jljendsudirman_satuarah_belokan jlsuroto_timur_2 jlsuroto_timur_3"/>
    <route id="route_gramedia_gramediautara" edges="jljendsudirman_satuarah_1 jljendsudirman_satuarah_2 jlcikditiro_barat_1 jlcikditiro_barat_2"/>
    <route id="route_gramedia_pingitbarat" edges="jljendsudirman_satuarah_1 jljendsudirman_satuarah_2 jljendsudirman_selatan_1 jljendsudirman_selatan_2 jljendsudirman_selatan_3 jljendsudirman_selatan_4 jljendsudirman_selatan_5 jljendsudirman_selatan_6 jljendsudirman_selatan_7 jljendsudirman_selatan_8 tugu_luar_2 tugu_luar_3 jlpdiponegoro_selatan_1 jlpdiponegoro_selatan_2 jlpdiponegoro_selatan_3 jlpdiponegoro_selatan_4 jlkyaimojo_selatan_1 jlkyaimojo_selatan_2 jlkyaimojo_selatan_3 jlkyaimojo_selatan_4"/>
    <route id="route_gramedia_pingitselatan" edges="jljendsudirman_satuarah_1 jljendsudirman_satuarah_2 jljendsudirman_selatan_1 jljendsudirman_selatan_2 jljendsudirman_selatan_3 jljendsudirman_selatan_4 jljendsudirman_selatan_5 jljendsudirman_selatan_6 jljendsudirman_selatan_7 jljendsudirman_selatan_8 tugu_luar_2 tugu_luar_3 jlpdiponegoro_selatan_1 jlpdiponegoro_selatan_2 jlpdiponegoro_selatan_3 jlpdiponegoro_selatan_4 jltentarapelajar_timur_1"/>
    <route id="route_gramedia_pingitutara" edges="jljendsudirman_satuarah_1 jljendsudirman_satuarah_2 jljendsudirman_selatan_1 jljendsudirman_selatan_2 jljendsudirman_selatan_3 jljendsudirman_selatan_4 jljendsudirman_selatan_5 jljendsudirman_selatan_6 jljendsudirman_selatan_7 jljendsudirman_selatan_8 tugu_luar_2 tugu_luar_3 jlpdiponegoro_selatan_1 jlpdiponegoro_selatan_2 jlpdiponegoro_selatan_3 jlpdiponegoro_selatan_4 jlmonjali_barat_1"/>
    <route id="route_gramedia_tuguselatan" edges="jljendsudirman_satuarah_1 jljendsudirman_satuarah_2 jljendsudirman_selatan_1 jljendsudirman_selatan_2 jljendsudirman_selatan_3 jljendsudirman_selatan_4 jljendsudirman_selatan_5 jljendsudirman_selatan_6 jljendsudirman_selatan_7 jljendsudirman_selatan_8 tugu_luar_2 jlpmangkubumi_timur_1 jlpmangkubumi_timur_2"/>
    <route id="route_gramedia_tuguutara" edges="jljendsudirman_satuarah_1 jljendsudirman_satuarah_2 jljendsudirman_selatan_1 jljendsudirman_selatan_2 jljendsudirman_selatan_3 jljendsudirman_selatan_4 jljendsudirman_selatan_5 jljendsudirman_selatan_6 jljendsudirman_selatan_7 jljendsudirman_selatan_8 tugu_luar_2 tugu_luar_3 tugu_luar_4 jlamsangaji_barat_1 jlamsangaji_barat_2"/>
    <route id="route_gramediaselatan_gramediautara" edges="jlsuroto_barat_3 jlsuroto_barat_2 jlsuroto_barat_1 jlcikditiro_barat_1 jlcikditiro_barat_2"/>
    <route id="route_gramediautara_gramediaselatan" edges="jlcikditiro_timur_1 jlsuroto_timur_1 jlsuroto_timur_2 jlsuroto_timur_3"/>
    <route id="route_gramediautara_tuguutara" edges="jlcikditiro_timur_1 jljendsudirman_selatan_1 jljendsudirman_selatan_2 jljendsudirman_selatan_3 jljendsudirman_selatan_4 jljendsudirman_selatan_5 jljendsudirman_selatan_6 jljendsudirman_selatan_7 jljendsudirman_selatan_8 tugu_dalam_1 jlamsangaji_barat_1 jlamsangaji_barat_2"/>
    <route id="route_pingit_gramediaselatan" edges="jlkyaimojo_utara_4 jlkyaimojo_utara_3 jlkyaimojo_utara_2 jlkyaimojo_utara_1 jlpdiponegoro_utara_4 jlpdiponegoro_utara_3 jlpdiponegoro_utara_2 jlpdiponegoro_utara_1 tugu_luar_4 tugu_luar_1 jljendsudirman_utara_1 jljendsudirman_utara_2 jljendsudirman_utara_3 jljendsudirman_utara_4 jljendsudirman_utara_5 jljendsudirman_utara_6 jljendsudirman_utara_7 jljendsudirman_utara_8 jlsuroto_timur_1 jlsuroto_timur_2 jlsuroto_timur_3"/>
    <route id="route_pingit_gramediautara" edges="jlkyaimojo_utara_4 jlkyaimojo_utara_3 jlkyaimojo_utara_2 jlkyaimojo_utara_1 jlpdiponegoro_utara_4 jlpdiponegoro_utara_3 jlpdiponegoro_utara_2 jlpdiponegoro_utara_1 tugu_luar_4 tugu_luar_1 jljendsudirman_utara_1 jljendsudirman_utara_2 jljendsudirman_utara_3 jljendsudirman_utara_4 jljendsudirman_utara_5 jljendsudirman_utara_6 jljendsudirman_utara_7 jljendsudirman_utara_belokan jlcikditiro_barat_2"/>
    <route id="route_pingitselatan_pingitutara" edges="jltentarapelajar_barat_1 jlmonjali_barat_1"/>
    <route id="route_pingittimur_pingitselatan" edges="jlkyaimojo_utara_4 jlkyaimojo_utara_3 jlkyaimojo_utara_2 jlkyaimojo_utara_1 jltentarapelajar_timur_1"/>
    <route id="route_pingitutara_pingitselatan" edges="jlmonjali_timur_1 jltentarapelajar_timur_1"/>
    <route id="route_pingitutara_tuguutara" edges="jlmonjali_timur_1 jlpdiponegoro_utara_4 jlpdiponegoro_utara_3 jlpdiponegoro_utara_2 jlpdiponegoro_utara_1 tugu_luar_4 jlamsangaji_barat_1 jlamsangaji_barat_2"/>
    <route id="route_tuguselatan_tuguutara" edges="jlpmangkubumi_barat_2 jlpmangkubumi_barat_1 tugu_luar_3 tugu_luar_4 jlamsangaji_barat_1 jlamsangaji_barat_2"/>
    <route id="route_tuguutara_gramedia_utara" edges="jlamsangaji_timur_2 jlamsangaji_timur_1 tugu_luar_1 jljendsudirman_utara_1 jljendsudirman_utara_2 jljendsudirman_utara_3 jljendsudirman_utara_4 jljendsudirman_utara_5 jljendsudirman_utara_6 jljendsudirman_utara_7 jljendsudirman_utara_belokan jlcikditiro_barat_2"/>
    <route id="route_tuguutara_pingitbarat" edges="jlamsangaji_timur_2 jlamsangaji_timur_1 tugu_dalam_4 jlpdiponegoro_selatan_1 jlpdiponegoro_selatan_2 jlpdiponegoro_selatan_3 jlpdiponegoro_selatan_4 jlkyaimojo_selatan_1 jlkyaimojo_selatan_2 jlkyaimojo_selatan_3 jlkyaimojo_selatan_4"/>
    <route id="route_tuguutara_tuguselatan" edges="jlamsangaji_timur_2 jlamsangaji_timur_1 tugu_luar_1 tugu_luar_2 jlpmangkubumi_timur_1 jlpmangkubumi_timur_2"/>
</routes>
