<?xml version="1.0" encoding="UTF-8"?>

<!-- generated on 2023-07-14 16:29:33.713954 by randomTrips.py UNKNOWN
<configuration>
    <begin value="0"/>
    <end value="1800"/>
    <fringe-factor value="10"/>
    <net-file value="lefthand.net.xml"/>
    <period value="1.9"/>
    <random value="True"/>
    <route-file value="four-leg-new-intersection.rou.xml"/>
</configuration>
-->

<routes xmlns:xsi="http://www.w3.org/2001/XMLSchema-instance" xsi:noNamespaceSchemaLocation="http://sumo.dlr.de/xsd/routes_file.xsd">
    <trip id="0" depart="0.00" from="-E1" to="E1"/>
    <trip id="1" depart="1.90" from="-E1" to="E1"/>
    <trip id="2" depart="3.80" from="-E3" to="E1"/>
    <trip id="3" depart="5.70" from="-E2" to="E2"/>
    <trip id="4" depart="7.60" from="-E2" to="E1"/>
    <trip id="5" depart="9.50" from="-E3" to="E4"/>
    <trip id="6" depart="11.40" from="-E3" to="E3"/>
    <trip id="7" depart="13.30" from="-E4" to="E3"/>
    <trip id="8" depart="15.20" from="-E3" to="E1"/>
    <trip id="9" depart="17.10" from="-E1" to="E4"/>
    <trip id="10" depart="19.00" from="-E2" to="E3"/>
    <trip id="11" depart="20.90" from="-E3" to="E4"/>
    <trip id="12" depart="22.80" from="-E2" to="E3"/>
    <trip id="13" depart="24.70" from="-E2" to="E4"/>
    <trip id="14" depart="26.60" from="-E2" to="E1"/>
    <trip id="15" depart="28.50" from="-E3" to="E2"/>
    <trip id="16" depart="30.40" from="-E4" to="E3"/>
    <trip id="17" depart="32.30" from="-E2" to="E3"/>
    <trip id="18" depart="34.20" from="-E3" to="E1"/>
    <trip id="19" depart="36.10" from="-E3" to="E3"/>
    <trip id="20" depart="38.00" from="-E1" to="E1"/>
    <trip id="21" depart="39.90" from="-E3" to="E1"/>
    <trip id="22" depart="41.80" from="-E3" to="E4"/>
    <trip id="23" depart="43.70" from="-E2" to="E4"/>
    <trip id="24" depart="45.60" from="-E4" to="E2"/>
    <trip id="25" depart="47.50" from="-E1" to="E3"/>
    <trip id="26" depart="49.40" from="-E1" to="E4"/>
    <trip id="27" depart="51.30" from="-E2" to="E2"/>
    <trip id="28" depart="53.20" from="-E1" to="E4"/>
    <trip id="29" depart="55.10" from="-E3" to="E3"/>
    <trip id="30" depart="57.00" from="-E3" to="E2"/>
    <trip id="31" depart="58.90" from="-E2" to="E4"/>
    <trip id="32" depart="60.80" from="-E1" to="E3"/>
    <trip id="33" depart="62.70" from="-E3" to="E2"/>
    <trip id="34" depart="64.60" from="-E1" to="E1"/>
    <trip id="35" depart="66.50" from="-E3" to="E3"/>
    <trip id="36" depart="68.40" from="-E2" to="E2"/>
    <trip id="37" depart="70.30" from="-E1" to="E1"/>
    <trip id="38" depart="72.20" from="-E3" to="E4"/>
    <trip id="39" depart="74.10" from="-E1" to="E1"/>
    <trip id="40" depart="76.00" from="-E1" to="E4"/>
    <trip id="41" depart="77.90" from="-E4" to="E3"/>
    <trip id="42" depart="79.80" from="-E3" to="E2"/>
    <trip id="43" depart="81.70" from="-E2" to="E2"/>
    <trip id="44" depart="83.60" from="-E2" to="E1"/>
    <trip id="45" depart="85.50" from="-E4" to="E2"/>
    <trip id="46" depart="87.40" from="-E2" to="E3"/>
    <trip id="47" depart="89.30" from="-E3" to="E4"/>
    <trip id="48" depart="91.20" from="-E3" to="E1"/>
    <trip id="49" depart="93.10" from="-E2" to="E1"/>
    <trip id="50" depart="95.00" from="-E1" to="E1"/>
    <trip id="51" depart="96.90" from="-E3" to="E3"/>
    <trip id="52" depart="98.80" from="-E3" to="E3"/>
    <trip id="53" depart="100.70" from="-E3" to="E4"/>
    <trip id="54" depart="102.60" from="-E2" to="E1"/>
    <trip id="55" depart="104.50" from="-E2" to="E4"/>
    <trip id="56" depart="106.40" from="-E1" to="E3"/>
    <trip id="57" depart="108.30" from="-E1" to="E4"/>
    <trip id="58" depart="110.20" from="-E2" to="E2"/>
    <trip id="59" depart="112.10" from="-E4" to="E1"/>
    <trip id="60" depart="114.00" from="-E1" to="E4"/>
    <trip id="61" depart="115.90" from="-E2" to="E4"/>
    <trip id="62" depart="117.80" from="-E3" to="E3"/>
    <trip id="63" depart="119.70" from="-E1" to="E1"/>
    <trip id="64" depart="121.60" from="-E4" to="E1"/>
    <trip id="65" depart="123.50" from="-E4" to="E4"/>
    <trip id="66" depart="125.40" from="-E1" to="E3"/>
    <trip id="67" depart="127.30" from="-E4" to="E2"/>
    <trip id="68" depart="129.20" from="-E3" to="E1"/>
    <trip id="69" depart="131.10" from="-E3" to="E4"/>
    <trip id="70" depart="133.00" from="-E4" to="E2"/>
    <trip id="71" depart="134.90" from="-E2" to="E4"/>
    <trip id="72" depart="136.80" from="-E1" to="E4"/>
    <trip id="73" depart="138.70" from="-E3" to="E1"/>
    <trip id="74" depart="140.60" from="-E4" to="E2"/>
    <trip id="75" depart="142.50" from="-E1" to="E4"/>
    <trip id="76" depart="144.40" from="-E3" to="E3"/>
    <trip id="77" depart="146.30" from="-E1" to="E2"/>
    <trip id="78" depart="148.20" from="-E4" to="E4"/>
    <trip id="79" depart="150.10" from="-E1" to="E4"/>
    <trip id="80" depart="152.00" from="-E1" to="E3"/>
    <trip id="81" depart="153.90" from="-E1" to="E1"/>
    <trip id="82" depart="155.80" from="-E2" to="E2"/>
    <trip id="83" depart="157.70" from="-E3" to="E1"/>
    <trip id="84" depart="159.60" from="-E1" to="E3"/>
    <trip id="85" depart="161.50" from="-E3" to="E1"/>
    <trip id="86" depart="163.40" from="-E2" to="E2"/>
    <trip id="87" depart="165.30" from="-E2" to="E4"/>
    <trip id="88" depart="167.20" from="-E3" to="E3"/>
    <trip id="89" depart="169.10" from="-E2" to="E1"/>
    <trip id="90" depart="171.00" from="-E4" to="E1"/>
    <trip id="91" depart="172.90" from="-E4" to="E1"/>
    <trip id="92" depart="174.80" from="-E3" to="E2"/>
    <trip id="93" depart="176.70" from="-E4" to="E2"/>
    <trip id="94" depart="178.60" from="-E2" to="E4"/>
    <trip id="95" depart="180.50" from="-E4" to="E2"/>
    <trip id="96" depart="182.40" from="-E2" to="E4"/>
    <trip id="97" depart="184.30" from="-E1" to="E2"/>
    <trip id="98" depart="186.20" from="-E1" to="E3"/>
    <trip id="99" depart="188.10" from="-E3" to="E4"/>
    <trip id="100" depart="190.00" from="-E4" to="E3"/>
    <trip id="101" depart="191.90" from="-E2" to="E2"/>
    <trip id="102" depart="193.80" from="-E1" to="E1"/>
    <trip id="103" depart="195.70" from="-E2" to="E2"/>
    <trip id="104" depart="197.60" from="-E2" to="E4"/>
    <trip id="105" depart="199.50" from="-E3" to="E2"/>
    <trip id="106" depart="201.40" from="-E3" to="E4"/>
    <trip id="107" depart="203.30" from="-E4" to="E2"/>
    <trip id="108" depart="205.20" from="-E1" to="E4"/>
    <trip id="109" depart="207.10" from="-E1" to="E4"/>
    <trip id="110" depart="209.00" from="-E3" to="E2"/>
    <trip id="111" depart="210.90" from="-E4" to="E4"/>
    <trip id="112" depart="212.80" from="-E4" to="E3"/>
    <trip id="113" depart="214.70" from="-E1" to="E2"/>
    <trip id="114" depart="216.60" from="-E3" to="E3"/>
    <trip id="115" depart="218.50" from="-E2" to="E3"/>
    <trip id="116" depart="220.40" from="-E2" to="E4"/>
    <trip id="117" depart="222.30" from="-E3" to="E3"/>
    <trip id="118" depart="224.20" from="-E4" to="E4"/>
    <trip id="119" depart="226.10" from="-E1" to="E1"/>
    <trip id="120" depart="228.00" from="-E4" to="E4"/>
    <trip id="121" depart="229.90" from="-E1" to="E4"/>
    <trip id="122" depart="231.80" from="-E4" to="E1"/>
    <trip id="123" depart="233.70" from="-E4" to="E2"/>
    <trip id="124" depart="235.60" from="-E1" to="E2"/>
    <trip id="125" depart="237.50" from="-E4" to="E3"/>
    <trip id="126" depart="239.40" from="-E1" to="E3"/>
    <trip id="127" depart="241.30" from="-E2" to="E3"/>
    <trip id="128" depart="243.20" from="-E1" to="E3"/>
    <trip id="129" depart="245.10" from="-E3" to="E4"/>
    <trip id="130" depart="247.00" from="-E1" to="E3"/>
    <trip id="131" depart="248.90" from="-E3" to="E2"/>
    <trip id="132" depart="250.80" from="-E1" to="E1"/>
    <trip id="133" depart="252.70" from="-E3" to="E1"/>
    <trip id="134" depart="254.60" from="-E1" to="E4"/>
    <trip id="135" depart="256.50" from="-E4" to="E2"/>
    <trip id="136" depart="258.40" from="-E3" to="E4"/>
    <trip id="137" depart="260.30" from="-E1" to="E3"/>
    <trip id="138" depart="262.20" from="-E3" to="E3"/>
    <trip id="139" depart="264.10" from="-E4" to="E3"/>
    <trip id="140" depart="266.00" from="-E2" to="E2"/>
    <trip id="141" depart="267.90" from="-E3" to="E4"/>
    <trip id="142" depart="269.80" from="-E3" to="E1"/>
    <trip id="143" depart="271.70" from="-E1" to="E2"/>
    <trip id="144" depart="273.60" from="-E1" to="E3"/>
    <trip id="145" depart="275.50" from="-E4" to="E2"/>
    <trip id="146" depart="277.40" from="-E1" to="E3"/>
    <trip id="147" depart="279.30" from="-E3" to="E1"/>
    <trip id="148" depart="281.20" from="-E1" to="E2"/>
    <trip id="149" depart="283.10" from="-E2" to="E4"/>
    <trip id="150" depart="285.00" from="-E1" to="E3"/>
    <trip id="151" depart="286.90" from="-E4" to="E2"/>
    <trip id="152" depart="288.80" from="-E3" to="E2"/>
    <trip id="153" depart="290.70" from="-E2" to="E4"/>
    <trip id="154" depart="292.60" from="-E4" to="E3"/>
    <trip id="155" depart="294.50" from="-E3" to="E4"/>
    <trip id="156" depart="296.40" from="-E2" to="E2"/>
    <trip id="157" depart="298.30" from="-E2" to="E1"/>
    <trip id="158" depart="300.20" from="-E1" to="E3"/>
    <trip id="159" depart="302.10" from="-E1" to="E3"/>
    <trip id="160" depart="304.00" from="-E1" to="E3"/>
    <trip id="161" depart="305.90" from="-E4" to="E3"/>
    <trip id="162" depart="307.80" from="-E4" to="E4"/>
    <trip id="163" depart="309.70" from="-E3" to="E3"/>
    <trip id="164" depart="311.60" from="-E1" to="E3"/>
    <trip id="165" depart="313.50" from="-E1" to="E4"/>
    <trip id="166" depart="315.40" from="-E3" to="E4"/>
    <trip id="167" depart="317.30" from="-E2" to="E1"/>
    <trip id="168" depart="319.20" from="-E4" to="E4"/>
    <trip id="169" depart="321.10" from="-E4" to="E3"/>
    <trip id="170" depart="323.00" from="-E4" to="E3"/>
    <trip id="171" depart="324.90" from="-E4" to="E3"/>
    <trip id="172" depart="326.80" from="-E2" to="E4"/>
    <trip id="173" depart="328.70" from="-E4" to="E2"/>
    <trip id="174" depart="330.60" from="-E2" to="E3"/>
    <trip id="175" depart="332.50" from="-E1" to="E4"/>
    <trip id="176" depart="334.40" from="-E4" to="E3"/>
    <trip id="177" depart="336.30" from="-E2" to="E1"/>
    <trip id="178" depart="338.20" from="-E2" to="E4"/>
    <trip id="179" depart="340.10" from="-E2" to="E1"/>
    <trip id="180" depart="342.00" from="-E4" to="E1"/>
    <trip id="181" depart="343.90" from="-E4" to="E3"/>
    <trip id="182" depart="345.80" from="-E2" to="E3"/>
    <trip id="183" depart="347.70" from="-E3" to="E1"/>
    <trip id="184" depart="349.60" from="-E4" to="E2"/>
    <trip id="185" depart="351.50" from="-E3" to="E4"/>
    <trip id="186" depart="353.40" from="-E3" to="E4"/>
    <trip id="187" depart="355.30" from="-E4" to="E4"/>
    <trip id="188" depart="357.20" from="-E4" to="E1"/>
    <trip id="189" depart="359.10" from="-E2" to="E2"/>
    <trip id="190" depart="361.00" from="-E4" to="E1"/>
    <trip id="191" depart="362.90" from="-E3" to="E1"/>
    <trip id="192" depart="364.80" from="-E3" to="E4"/>
    <trip id="193" depart="366.70" from="-E2" to="E3"/>
    <trip id="194" depart="368.60" from="-E1" to="E2"/>
    <trip id="195" depart="370.50" from="-E2" to="E4"/>
    <trip id="196" depart="372.40" from="-E3" to="E4"/>
    <trip id="197" depart="374.30" from="-E1" to="E1"/>
    <trip id="198" depart="376.20" from="-E2" to="E2"/>
    <trip id="199" depart="378.10" from="-E1" to="E2"/>
    <trip id="200" depart="380.00" from="-E2" to="E2"/>
    <trip id="201" depart="381.90" from="-E2" to="E4"/>
    <trip id="202" depart="383.80" from="-E2" to="E2"/>
    <trip id="203" depart="385.70" from="-E4" to="E2"/>
    <trip id="204" depart="387.60" from="-E1" to="E1"/>
    <trip id="205" depart="389.50" from="-E2" to="E4"/>
    <trip id="206" depart="391.40" from="-E2" to="E1"/>
    <trip id="207" depart="393.30" from="-E4" to="E3"/>
    <trip id="208" depart="395.20" from="-E3" to="E2"/>
    <trip id="209" depart="397.10" from="-E4" to="E4"/>
    <trip id="210" depart="399.00" from="-E4" to="E4"/>
    <trip id="211" depart="400.90" from="-E4" to="E2"/>
    <trip id="212" depart="402.80" from="-E4" to="E2"/>
    <trip id="213" depart="404.70" from="-E3" to="E3"/>
    <trip id="214" depart="406.60" from="-E2" to="E4"/>
    <trip id="215" depart="408.50" from="-E3" to="E4"/>
    <trip id="216" depart="410.40" from="-E3" to="E1"/>
    <trip id="217" depart="412.30" from="-E1" to="E3"/>
    <trip id="218" depart="414.20" from="-E4" to="E3"/>
    <trip id="219" depart="416.10" from="-E2" to="E2"/>
    <trip id="220" depart="418.00" from="-E4" to="E3"/>
    <trip id="221" depart="419.90" from="-E1" to="E1"/>
    <trip id="222" depart="421.80" from="-E4" to="E3"/>
    <trip id="223" depart="423.70" from="-E4" to="E4"/>
    <trip id="224" depart="425.60" from="-E4" to="E3"/>
    <trip id="225" depart="427.50" from="-E4" to="E2"/>
    <trip id="226" depart="429.40" from="-E1" to="E1"/>
    <trip id="227" depart="431.30" from="-E3" to="E4"/>
    <trip id="228" depart="433.20" from="-E4" to="E3"/>
    <trip id="229" depart="435.10" from="-E4" to="E1"/>
    <trip id="230" depart="437.00" from="-E2" to="E2"/>
    <trip id="231" depart="438.90" from="-E4" to="E3"/>
    <trip id="232" depart="440.80" from="-E3" to="E1"/>
    <trip id="233" depart="442.70" from="-E2" to="E3"/>
    <trip id="234" depart="444.60" from="-E3" to="E1"/>
    <trip id="235" depart="446.50" from="-E1" to="E3"/>
    <trip id="236" depart="448.40" from="-E1" to="E3"/>
    <trip id="237" depart="450.30" from="-E2" to="E3"/>
    <trip id="238" depart="452.20" from="-E3" to="E3"/>
    <trip id="239" depart="454.10" from="-E2" to="E1"/>
    <trip id="240" depart="456.00" from="-E1" to="E4"/>
    <trip id="241" depart="457.90" from="-E4" to="E4"/>
    <trip id="242" depart="459.80" from="-E2" to="E2"/>
    <trip id="243" depart="461.70" from="-E1" to="E1"/>
    <trip id="244" depart="463.60" from="-E3" to="E4"/>
    <trip id="245" depart="465.50" from="-E4" to="E4"/>
    <trip id="246" depart="467.40" from="-E4" to="E1"/>
    <trip id="247" depart="469.30" from="-E4" to="E3"/>
    <trip id="248" depart="471.20" from="-E2" to="E1"/>
    <trip id="249" depart="473.10" from="-E4" to="E2"/>
    <trip id="250" depart="475.00" from="-E3" to="E2"/>
    <trip id="251" depart="476.90" from="-E4" to="E3"/>
    <trip id="252" depart="478.80" from="-E3" to="E1"/>
    <trip id="253" depart="480.70" from="-E3" to="E3"/>
    <trip id="254" depart="482.60" from="-E4" to="E3"/>
    <trip id="255" depart="484.50" from="-E4" to="E2"/>
    <trip id="256" depart="486.40" from="-E1" to="E3"/>
    <trip id="257" depart="488.30" from="-E3" to="E2"/>
    <trip id="258" depart="490.20" from="-E1" to="E4"/>
    <trip id="259" depart="492.10" from="-E3" to="E3"/>
    <trip id="260" depart="494.00" from="-E4" to="E3"/>
    <trip id="261" depart="495.90" from="-E4" to="E1"/>
    <trip id="262" depart="497.80" from="-E4" to="E3"/>
    <trip id="263" depart="499.70" from="-E2" to="E2"/>
    <trip id="264" depart="501.60" from="-E2" to="E2"/>
    <trip id="265" depart="503.50" from="-E3" to="E4"/>
    <trip id="266" depart="505.40" from="-E4" to="E2"/>
    <trip id="267" depart="507.30" from="-E2" to="E4"/>
    <trip id="268" depart="509.20" from="-E3" to="E1"/>
    <trip id="269" depart="511.10" from="-E3" to="E1"/>
    <trip id="270" depart="513.00" from="-E1" to="E4"/>
    <trip id="271" depart="514.90" from="-E4" to="E1"/>
    <trip id="272" depart="516.80" from="-E3" to="E2"/>
    <trip id="273" depart="518.70" from="-E2" to="E4"/>
    <trip id="274" depart="520.60" from="-E3" to="E2"/>
    <trip id="275" depart="522.50" from="-E1" to="E1"/>
    <trip id="276" depart="524.40" from="-E3" to="E2"/>
    <trip id="277" depart="526.30" from="-E2" to="E1"/>
    <trip id="278" depart="528.20" from="-E2" to="E1"/>
    <trip id="279" depart="530.10" from="-E1" to="E4"/>
    <trip id="280" depart="532.00" from="-E2" to="E3"/>
    <trip id="281" depart="533.90" from="-E1" to="E1"/>
    <trip id="282" depart="535.80" from="-E1" to="E2"/>
    <trip id="283" depart="537.70" from="-E4" to="E3"/>
    <trip id="284" depart="539.60" from="-E3" to="E4"/>
    <trip id="285" depart="541.50" from="-E3" to="E3"/>
    <trip id="286" depart="543.40" from="-E1" to="E4"/>
    <trip id="287" depart="545.30" from="-E2" to="E3"/>
    <trip id="288" depart="547.20" from="-E2" to="E4"/>
    <trip id="289" depart="549.10" from="-E4" to="E2"/>
    <trip id="290" depart="551.00" from="-E1" to="E1"/>
    <trip id="291" depart="552.90" from="-E1" to="E2"/>
    <trip id="292" depart="554.80" from="-E3" to="E4"/>
    <trip id="293" depart="556.70" from="-E2" to="E2"/>
    <trip id="294" depart="558.60" from="-E1" to="E4"/>
    <trip id="295" depart="560.50" from="-E2" to="E2"/>
    <trip id="296" depart="562.40" from="-E3" to="E1"/>
    <trip id="297" depart="564.30" from="-E4" to="E3"/>
    <trip id="298" depart="566.20" from="-E4" to="E4"/>
    <trip id="299" depart="568.10" from="-E3" to="E1"/>
    <trip id="300" depart="570.00" from="-E2" to="E3"/>
    <trip id="301" depart="571.90" from="-E4" to="E1"/>
    <trip id="302" depart="573.80" from="-E2" to="E2"/>
    <trip id="303" depart="575.70" from="-E2" to="E4"/>
    <trip id="304" depart="577.60" from="-E1" to="E2"/>
    <trip id="305" depart="579.50" from="-E1" to="E4"/>
    <trip id="306" depart="581.40" from="-E2" to="E2"/>
    <trip id="307" depart="583.30" from="-E1" to="E2"/>
    <trip id="308" depart="585.20" from="-E1" to="E4"/>
    <trip id="309" depart="587.10" from="-E2" to="E2"/>
    <trip id="310" depart="589.00" from="-E2" to="E3"/>
    <trip id="311" depart="590.90" from="-E1" to="E4"/>
    <trip id="312" depart="592.80" from="-E2" to="E3"/>
    <trip id="313" depart="594.70" from="-E3" to="E4"/>
    <trip id="314" depart="596.60" from="-E3" to="E4"/>
    <trip id="315" depart="598.50" from="-E1" to="E1"/>
    <trip id="316" depart="600.40" from="-E3" to="E2"/>
    <trip id="317" depart="602.30" from="-E2" to="E2"/>
    <trip id="318" depart="604.20" from="-E1" to="E4"/>
    <trip id="319" depart="606.10" from="-E3" to="E4"/>
    <trip id="320" depart="608.00" from="-E4" to="E2"/>
    <trip id="321" depart="609.90" from="-E4" to="E3"/>
    <trip id="322" depart="611.80" from="-E1" to="E4"/>
    <trip id="323" depart="613.70" from="-E4" to="E1"/>
    <trip id="324" depart="615.60" from="-E1" to="E1"/>
    <trip id="325" depart="617.50" from="-E3" to="E2"/>
    <trip id="326" depart="619.40" from="-E4" to="E3"/>
    <trip id="327" depart="621.30" from="-E4" to="E1"/>
    <trip id="328" depart="623.20" from="-E2" to="E1"/>
    <trip id="329" depart="625.10" from="-E4" to="E1"/>
    <trip id="330" depart="627.00" from="-E2" to="E1"/>
    <trip id="331" depart="628.90" from="-E1" to="E2"/>
    <trip id="332" depart="630.80" from="-E1" to="E2"/>
    <trip id="333" depart="632.70" from="-E1" to="E3"/>
    <trip id="334" depart="634.60" from="-E4" to="E2"/>
    <trip id="335" depart="636.50" from="-E4" to="E2"/>
    <trip id="336" depart="638.40" from="-E3" to="E3"/>
    <trip id="337" depart="640.30" from="-E2" to="E4"/>
    <trip id="338" depart="642.20" from="-E1" to="E2"/>
    <trip id="339" depart="644.10" from="-E2" to="E1"/>
    <trip id="340" depart="646.00" from="-E2" to="E1"/>
    <trip id="341" depart="647.90" from="-E1" to="E2"/>
    <trip id="342" depart="649.80" from="-E2" to="E2"/>
    <trip id="343" depart="651.70" from="-E3" to="E2"/>
    <trip id="344" depart="653.60" from="-E2" to="E4"/>
    <trip id="345" depart="655.50" from="-E3" to="E2"/>
    <trip id="346" depart="657.40" from="-E2" to="E3"/>
    <trip id="347" depart="659.30" from="-E1" to="E3"/>
    <trip id="348" depart="661.20" from="-E2" to="E4"/>
    <trip id="349" depart="663.10" from="-E2" to="E4"/>
    <trip id="350" depart="665.00" from="-E2" to="E3"/>
    <trip id="351" depart="666.90" from="-E2" to="E2"/>
    <trip id="352" depart="668.80" from="-E3" to="E1"/>
    <trip id="353" depart="670.70" from="-E1" to="E2"/>
    <trip id="354" depart="672.60" from="-E4" to="E4"/>
    <trip id="355" depart="674.50" from="-E3" to="E3"/>
    <trip id="356" depart="676.40" from="-E4" to="E2"/>
    <trip id="357" depart="678.30" from="-E4" to="E1"/>
    <trip id="358" depart="680.20" from="-E4" to="E1"/>
    <trip id="359" depart="682.10" from="-E1" to="E2"/>
    <trip id="360" depart="684.00" from="-E1" to="E1"/>
    <trip id="361" depart="685.90" from="-E2" to="E2"/>
    <trip id="362" depart="687.80" from="-E4" to="E3"/>
    <trip id="363" depart="689.70" from="-E2" to="E4"/>
    <trip id="364" depart="691.60" from="-E1" to="E2"/>
    <trip id="365" depart="693.50" from="-E1" to="E2"/>
    <trip id="366" depart="695.40" from="-E1" to="E3"/>
    <trip id="367" depart="697.30" from="-E4" to="E4"/>
    <trip id="368" depart="699.20" from="-E3" to="E2"/>
    <trip id="369" depart="701.10" from="-E3" to="E2"/>
    <trip id="370" depart="703.00" from="-E3" to="E4"/>
    <trip id="371" depart="704.90" from="-E3" to="E2"/>
    <trip id="372" depart="706.80" from="-E4" to="E4"/>
    <trip id="373" depart="708.70" from="-E4" to="E3"/>
    <trip id="374" depart="710.60" from="-E2" to="E2"/>
    <trip id="375" depart="712.50" from="-E1" to="E4"/>
    <trip id="376" depart="714.40" from="-E4" to="E1"/>
    <trip id="377" depart="716.30" from="-E3" to="E4"/>
    <trip id="378" depart="718.20" from="-E4" to="E3"/>
    <trip id="379" depart="720.10" from="-E2" to="E3"/>
    <trip id="380" depart="722.00" from="-E2" to="E4"/>
    <trip id="381" depart="723.90" from="-E2" to="E2"/>
    <trip id="382" depart="725.80" from="-E3" to="E1"/>
    <trip id="383" depart="727.70" from="-E2" to="E4"/>
    <trip id="384" depart="729.60" from="-E1" to="E2"/>
    <trip id="385" depart="731.50" from="-E1" to="E3"/>
    <trip id="386" depart="733.40" from="-E4" to="E3"/>
    <trip id="387" depart="735.30" from="-E4" to="E2"/>
    <trip id="388" depart="737.20" from="-E1" to="E3"/>
    <trip id="389" depart="739.10" from="-E2" to="E1"/>
    <trip id="390" depart="741.00" from="-E3" to="E1"/>
    <trip id="391" depart="742.90" from="-E4" to="E1"/>
    <trip id="392" depart="744.80" from="-E3" to="E1"/>
    <trip id="393" depart="746.70" from="-E4" to="E1"/>
    <trip id="394" depart="748.60" from="-E4" to="E3"/>
    <trip id="395" depart="750.50" from="-E3" to="E1"/>
    <trip id="396" depart="752.40" from="-E1" to="E2"/>
    <trip id="397" depart="754.30" from="-E4" to="E4"/>
    <trip id="398" depart="756.20" from="-E3" to="E2"/>
    <trip id="399" depart="758.10" from="-E4" to="E3"/>
    <trip id="400" depart="760.00" from="-E4" to="E3"/>
    <trip id="401" depart="761.90" from="-E2" to="E2"/>
    <trip id="402" depart="763.80" from="-E4" to="E1"/>
    <trip id="403" depart="765.70" from="-E2" to="E3"/>
    <trip id="404" depart="767.60" from="-E4" to="E3"/>
    <trip id="405" depart="769.50" from="-E3" to="E4"/>
    <trip id="406" depart="771.40" from="-E4" to="E3"/>
    <trip id="407" depart="773.30" from="-E1" to="E4"/>
    <trip id="408" depart="775.20" from="-E3" to="E2"/>
    <trip id="409" depart="777.10" from="-E3" to="E1"/>
    <trip id="410" depart="779.00" from="-E1" to="E4"/>
    <trip id="411" depart="780.90" from="-E4" to="E2"/>
    <trip id="412" depart="782.80" from="-E4" to="E4"/>
    <trip id="413" depart="784.70" from="-E4" to="E1"/>
    <trip id="414" depart="786.60" from="-E2" to="E4"/>
    <trip id="415" depart="788.50" from="-E3" to="E4"/>
    <trip id="416" depart="790.40" from="-E4" to="E1"/>
    <trip id="417" depart="792.30" from="-E1" to="E1"/>
    <trip id="418" depart="794.20" from="-E4" to="E4"/>
    <trip id="419" depart="796.10" from="-E4" to="E4"/>
    <trip id="420" depart="798.00" from="-E3" to="E3"/>
    <trip id="421" depart="799.90" from="-E2" to="E3"/>
    <trip id="422" depart="801.80" from="-E2" to="E4"/>
    <trip id="423" depart="803.70" from="-E2" to="E3"/>
    <trip id="424" depart="805.60" from="-E2" to="E2"/>
    <trip id="425" depart="807.50" from="-E2" to="E4"/>
    <trip id="426" depart="809.40" from="-E1" to="E4"/>
    <trip id="427" depart="811.30" from="-E3" to="E2"/>
    <trip id="428" depart="813.20" from="-E4" to="E3"/>
    <trip id="429" depart="815.10" from="-E1" to="E3"/>
    <trip id="430" depart="817.00" from="-E2" to="E2"/>
    <trip id="431" depart="818.90" from="-E3" to="E3"/>
    <trip id="432" depart="820.80" from="-E1" to="E3"/>
    <trip id="433" depart="822.70" from="-E2" to="E4"/>
    <trip id="434" depart="824.60" from="-E4" to="E3"/>
    <trip id="435" depart="826.50" from="-E1" to="E4"/>
    <trip id="436" depart="828.40" from="-E2" to="E1"/>
    <trip id="437" depart="830.30" from="-E3" to="E1"/>
    <trip id="438" depart="832.20" from="-E3" to="E2"/>
    <trip id="439" depart="834.10" from="-E4" to="E4"/>
    <trip id="440" depart="836.00" from="-E4" to="E1"/>
    <trip id="441" depart="837.90" from="-E3" to="E2"/>
    <trip id="442" depart="839.80" from="-E2" to="E4"/>
    <trip id="443" depart="841.70" from="-E2" to="E1"/>
    <trip id="444" depart="843.60" from="-E4" to="E3"/>
    <trip id="445" depart="845.50" from="-E2" to="E2"/>
    <trip id="446" depart="847.40" from="-E4" to="E1"/>
    <trip id="447" depart="849.30" from="-E2" to="E3"/>
    <trip id="448" depart="851.20" from="-E4" to="E1"/>
    <trip id="449" depart="853.10" from="-E2" to="E4"/>
    <trip id="450" depart="855.00" from="-E4" to="E4"/>
    <trip id="451" depart="856.90" from="-E1" to="E1"/>
    <trip id="452" depart="858.80" from="-E1" to="E4"/>
    <trip id="453" depart="860.70" from="-E4" to="E3"/>
    <trip id="454" depart="862.60" from="-E2" to="E2"/>
    <trip id="455" depart="864.50" from="-E3" to="E4"/>
    <trip id="456" depart="866.40" from="-E3" to="E3"/>
    <trip id="457" depart="868.30" from="-E2" to="E3"/>
    <trip id="458" depart="870.20" from="-E3" to="E3"/>
    <trip id="459" depart="872.10" from="-E2" to="E3"/>
    <trip id="460" depart="874.00" from="-E3" to="E4"/>
    <trip id="461" depart="875.90" from="-E3" to="E2"/>
    <trip id="462" depart="877.80" from="-E3" to="E4"/>
    <trip id="463" depart="879.70" from="-E4" to="E1"/>
    <trip id="464" depart="881.60" from="-E2" to="E2"/>
    <trip id="465" depart="883.50" from="-E4" to="E3"/>
    <trip id="466" depart="885.40" from="-E3" to="E4"/>
    <trip id="467" depart="887.30" from="-E3" to="E4"/>
    <trip id="468" depart="889.20" from="-E2" to="E4"/>
    <trip id="469" depart="891.10" from="-E3" to="E1"/>
    <trip id="470" depart="893.00" from="-E3" to="E3"/>
    <trip id="471" depart="894.90" from="-E3" to="E1"/>
    <trip id="472" depart="896.80" from="-E1" to="E2"/>
    <trip id="473" depart="898.70" from="-E3" to="E3"/>
    <trip id="474" depart="900.60" from="-E2" to="E4"/>
    <trip id="475" depart="902.50" from="-E2" to="E4"/>
    <trip id="476" depart="904.40" from="-E2" to="E4"/>
    <trip id="477" depart="906.30" from="-E3" to="E3"/>
    <trip id="478" depart="908.20" from="-E2" to="E4"/>
    <trip id="479" depart="910.10" from="-E4" to="E4"/>
    <trip id="480" depart="912.00" from="-E2" to="E3"/>
    <trip id="481" depart="913.90" from="-E4" to="E4"/>
    <trip id="482" depart="915.80" from="-E4" to="E3"/>
    <trip id="483" depart="917.70" from="-E3" to="E1"/>
    <trip id="484" depart="919.60" from="-E3" to="E3"/>
    <trip id="485" depart="921.50" from="-E2" to="E4"/>
    <trip id="486" depart="923.40" from="-E1" to="E3"/>
    <trip id="487" depart="925.30" from="-E3" to="E4"/>
    <trip id="488" depart="927.20" from="-E4" to="E3"/>
    <trip id="489" depart="929.10" from="-E3" to="E4"/>
    <trip id="490" depart="931.00" from="-E1" to="E4"/>
    <trip id="491" depart="932.90" from="-E1" to="E1"/>
    <trip id="492" depart="934.80" from="-E3" to="E3"/>
    <trip id="493" depart="936.70" from="-E1" to="E2"/>
    <trip id="494" depart="938.60" from="-E3" to="E3"/>
    <trip id="495" depart="940.50" from="-E2" to="E2"/>
    <trip id="496" depart="942.40" from="-E4" to="E2"/>
    <trip id="497" depart="944.30" from="-E3" to="E2"/>
    <trip id="498" depart="946.20" from="-E2" to="E2"/>
    <trip id="499" depart="948.10" from="-E2" to="E4"/>
    <trip id="500" depart="950.00" from="-E3" to="E4"/>
    <trip id="501" depart="951.90" from="-E3" to="E2"/>
    <trip id="502" depart="953.80" from="-E4" to="E1"/>
    <trip id="503" depart="955.70" from="-E2" to="E3"/>
    <trip id="504" depart="957.60" from="-E4" to="E2"/>
    <trip id="505" depart="959.50" from="-E1" to="E1"/>
    <trip id="506" depart="961.40" from="-E3" to="E2"/>
    <trip id="507" depart="963.30" from="-E2" to="E4"/>
    <trip id="508" depart="965.20" from="-E2" to="E2"/>
    <trip id="509" depart="967.10" from="-E2" to="E1"/>
    <trip id="510" depart="969.00" from="-E1" to="E3"/>
    <trip id="511" depart="970.90" from="-E1" to="E3"/>
    <trip id="512" depart="972.80" from="-E3" to="E3"/>
    <trip id="513" depart="974.70" from="-E1" to="E2"/>
    <trip id="514" depart="976.60" from="-E2" to="E1"/>
    <trip id="515" depart="978.50" from="-E3" to="E3"/>
    <trip id="516" depart="980.40" from="-E4" to="E4"/>
    <trip id="517" depart="982.30" from="-E3" to="E1"/>
    <trip id="518" depart="984.20" from="-E3" to="E2"/>
    <trip id="519" depart="986.10" from="-E4" to="E4"/>
    <trip id="520" depart="988.00" from="-E3" to="E4"/>
    <trip id="521" depart="989.90" from="-E2" to="E4"/>
    <trip id="522" depart="991.80" from="-E4" to="E2"/>
    <trip id="523" depart="993.70" from="-E4" to="E1"/>
    <trip id="524" depart="995.60" from="-E1" to="E4"/>
    <trip id="525" depart="997.50" from="-E4" to="E1"/>
    <trip id="526" depart="999.40" from="-E1" to="E1"/>
    <trip id="527" depart="1001.30" from="-E2" to="E3"/>
    <trip id="528" depart="1003.20" from="-E3" to="E3"/>