<?xml version="1.0" encoding="UTF-8"?>

<!-- generated on 2023-08-29 10:35:22.225948 by randomTrips.py UNKNOWN
<configuration>
    <begin value="0"/>
    <end value="3600"/>
    <fringe-factor value="10"/>
    <net-file value="lefthand-thesis.net.xml"/>
    <period value="900.0"/>
    <random value="True"/>
    <random-depart value="True"/>
    <route-file value="evfour-leg-thesis-intersection.rou.xml"/>
    <prefix value="ev"/>
    <vclass value="emergency"/>
    <vehicle-class value="emergency"/>
</configuration>
-->

<routes xmlns:xsi="http://www.w3.org/2001/XMLSchema-instance" xsi:noNamespaceSchemaLocation="http://sumo.dlr.de/xsd/routes_file.xsd">
    <vType id="ev_emergency" vClass="emergency"/>
    <trip id="ev0" depart="776.00" from="-E4" to="E3" type="ev_emergency"/>
    <trip id="ev1" depart="869.00" from="-E4" to="E1" type="ev_emergency"/>
    <trip id="ev2" depart="1071.00" from="-E4" to="E1" type="ev_emergency"/>
    <trip id="ev3" depart="2601.00" from="-E2" to="E3" type="ev_emergency"/>
</routes>
