<?xml version="1.0" encoding="UTF-8"?>

<!-- generated on 2023-08-31 10:52:33.820188 by randomTrips.py UNKNOWN
<configuration>
    <begin value="0"/>
    <end value="3600"/>
    <fringe-factor value="10"/>
    <net-file value="lefthand-thesis.net.xml"/>
    <period value="450.0"/>
    <random value="True"/>
    <random-depart value="True"/>
    <route-file value="evfour-leg-thesis-intersection.rou.xml"/>
    <prefix value="ev"/>
    <vclass value="emergency"/>
    <vehicle-class value="emergency"/>
</configuration>
-->

<routes xmlns:xsi="http://www.w3.org/2001/XMLSchema-instance" xsi:noNamespaceSchemaLocation="http://sumo.dlr.de/xsd/routes_file.xsd">
    <vType id="ev_emergency" vClass="emergency"/>
    <trip id="ev0" depart="86.00" from="-E2" to="E1" type="ev_emergency"/>
    <trip id="ev1" depart="177.00" from="-E2" to="E4" type="ev_emergency"/>
    <trip id="ev2" depart="882.00" from="-E2" to="E3" type="ev_emergency"/>
    <trip id="ev3" depart="1089.00" from="-E3" to="E1" type="ev_emergency"/>
    <trip id="ev4" depart="1240.00" from="-E3" to="E4" type="ev_emergency"/>
    <trip id="ev5" depart="1848.00" from="-E4" to="E4" type="ev_emergency"/>
    <trip id="ev6" depart="2825.00" from="-E3" to="E1" type="ev_emergency"/>
    <trip id="ev7" depart="2973.00" from="-E4" to="E1" type="ev_emergency"/>
</routes>
